@<TRIPOS>MOLECULE
ZINC00464887
   39    42     0     0     0
SMALL
USER_CHARGES
4-(4-chlorophenyl)-8-methyl-9-phenyl-2,6,7-triazabicyclo[4.3.0]nona-2,4,7,9-tetraen-5-amine
@<TRIPOS>ATOM
      1 C1         -0.0127    1.0858    0.0080 C.3       1 <0>        -0.0794
      2 C2         -0.7181    1.5718    1.2479 C.2       1 <0>         0.1482
      3 C3         -0.1079    1.8450    2.4785 C.2       1 <0>        -0.2121
      4 C4         -1.1142    2.2696    3.3551 C.2       1 <0>         0.3150
      5 N1         -1.0883    2.6515    4.6369 N.2       1 <0>        -0.5003
      6 C5         -2.1836    3.0155    5.2648 C.2       1 <0>         0.2357
      7 C6         -3.4178    3.0106    4.5928 C.2       1 <0>        -0.2666
      8 C7         -3.4563    2.6152    3.2594 C.2       1 <0>         0.5076
      9 N2         -2.2881    2.2445    2.6494 N.pl3     1 <0>        -0.3441
     10 N3         -2.0015    1.8133    1.3495 N.2       1 <0>        -0.3248
     11 N4         -4.6446    2.5975    2.5675 N.pl3     1 <0>        -0.8254
     12 C8         -4.6586    3.4207    5.2932 C.ar      1 <0>        -0.0078
     13 C9         -5.5086    4.3631    4.7162 C.ar      1 <0>        -0.1191
     14 C10        -6.6646    4.7377    5.3700 C.ar      1 <0>        -0.0997
     15 C11        -6.9753    4.1876    6.6019 C.ar      1 <0>        -0.0366
     16 C12        -6.1322    3.2549    7.1815 C.ar      1 <0>        -0.0992
     17 C13        -4.9764    2.8695    6.5337 C.ar      1 <0>        -0.0938
     18 Cl1        -8.4275    4.6686    7.4225 Cl        1 <0>        -0.0644
     19 C14         1.3330    1.7107    2.7938 C.ar      1 <0>         0.0127
     20 C15         1.7595    0.7741    3.7353 C.ar      1 <0>        -0.0975
     21 C16         3.1038    0.6497    4.0205 C.ar      1 <0>        -0.1186
     22 C17         4.0268    1.4596    3.3832 C.ar      1 <0>        -0.1222
     23 C18         3.6095    2.3944    2.4525 C.ar      1 <0>        -0.1194
     24 C19         2.2686    2.5243    2.1545 C.ar      1 <0>        -0.1092
     25 H1          0.0021   -0.0041    0.0020 H         1 <0>         0.0871
     26 H2          1.0099    1.4631    0.0003 H         1 <0>         0.0871
     27 H3         -0.5399    1.4469   -0.8751 H         1 <0>         0.0802
     28 H4         -2.1352    3.3195    6.3000 H         1 <0>         0.1790
     29 H5         -5.4668    2.8623    3.0088 H         1 <0>         0.4246
     30 H6         -4.6606    2.3201    1.6381 H         1 <0>         0.4181
     31 H7         -5.2647    4.7964    3.7575 H         1 <0>         0.1320
     32 H8         -7.3260    5.4644    4.9219 H         1 <0>         0.1377
     33 H9         -6.3793    2.8285    8.1425 H         1 <0>         0.1389
     34 H10        -4.3190    2.1424    6.9870 H         1 <0>         0.1379
     35 H11         1.0395    0.1444    4.2368 H         1 <0>         0.1168
     36 H12         3.4357   -0.0781    4.7460 H         1 <0>         0.1212
     37 H13         5.0776    1.3614    3.6128 H         1 <0>         0.1201
     38 H14         4.3347    3.0240    1.9586 H         1 <0>         0.1216
     39 H15         1.9440    3.2542    1.4276 H         1 <0>         0.1188
@<TRIPOS>BOND
     1    1    2 1
     2    1   25 1
     3    1   26 1
     4    1   27 1
     5    2   10 2
     6    2    3 1
     7    3    4 2
     8    3   19 1
     9    4    9 1
    10    4    5 1
    11    5    6 2
    12    6    7 1
    13    6   28 1
    14    7    8 2
    15    7   12 1
    16    8    9 1
    17    8   11 1
    18    9   10 1
    19   11   29 1
    20   11   30 1
    21   12   17 ar
    22   12   13 ar
    23   13   14 ar
    24   13   31 1
    25   14   15 ar
    26   14   32 1
    27   15   16 ar
    28   15   18 1
    29   16   17 ar
    30   16   33 1
    31   17   34 1
    32   19   24 ar
    33   19   20 ar
    34   20   21 ar
    35   20   35 1
    36   21   22 ar
    37   21   36 1
    38   22   23 ar
    39   22   37 1
    40   23   24 ar
    41   23   38 1
    42   24   39 1
@<TRIPOS>MOLECULE
ZINC06662791
   42    45     0     0     0
SMALL
USER_CHARGES
(3-fluoro-4-methyl-phenyl)aminomethyl-hydroxy-BLAHone
@<TRIPOS>ATOM
      1 C1         -0.0800    5.6675    0.0318 C.3       1 <0>        -0.1063
      2 C2         -0.0576    4.1607    0.0240 C.ar      1 <0>        -0.1796
      3 C3         -1.2454    3.4529    0.0320 C.ar      1 <0>        -0.0430
      4 C4         -1.2288    2.0721    0.0191 C.ar      1 <0>        -0.2035
      5 C5         -0.0169    1.3925    0.0097 C.ar      1 <0>         0.2438
      6 C6          1.1752    2.1043    0.0021 C.ar      1 <0>        -0.2299
      7 C7          1.1526    3.4875    0.0093 C.ar      1 <0>         0.1452
      8 F1          2.3115    4.1819    0.0024 F         1 <0>        -0.1379
      9 N1          0.0021   -0.0041    0.0020 N.pl3     1 <0>        -0.7339
     10 C8         -1.2565   -0.7538    0.0100 C.3       1 <0>         0.1792
     11 C9         -0.9611   -2.2315   -0.0007 C.ar      1 <0>        -0.1522
     12 C10        -0.8143   -2.9152    1.1944 C.ar      1 <0>         0.1747
     13 C11        -0.5411   -4.2788    1.1970 C.ar      1 <0>        -0.1611
     14 C12        -0.4150   -4.9596    0.0062 C.ar      1 <0>        -0.0398
     15 C13        -0.5617   -4.2795   -1.2018 C.ar      1 <0>        -0.1316
     16 C14        -0.8425   -2.9052   -1.2089 C.ar      1 <0>         0.1724
     17 O1         -0.9932   -2.2290   -2.3699 O.3       1 <0>        -0.2704
     18 C15        -0.8921   -2.8150   -3.5735 C.2       1 <0>         0.5315
     19 O2         -1.0376   -2.1529   -4.5830 O.2       1 <0>        -0.4389
     20 C16        -0.6059   -4.2528   -3.6769 C.ar      1 <0>        -0.1779
     21 C17        -0.4307   -4.9919   -2.4872 C.ar      1 <0>         0.0048
     22 C18        -0.1694   -6.3548   -2.5509 C.ar      1 <0>        -0.1187
     23 C19        -0.0631   -6.9716   -3.7815 C.ar      1 <0>        -0.0714
     24 C20        -0.2245   -6.2452   -4.9516 C.ar      1 <0>        -0.1279
     25 C21        -0.4944   -4.8932   -4.9089 C.ar      1 <0>        -0.0376
     26 O3         -0.9374   -2.2496    2.3720 O.3       1 <0>        -0.4840
     27 H1         -0.0950    6.0360   -0.9940 H         1 <0>         0.0674
     28 H2         -0.9705    6.0150    0.5557 H         1 <0>         0.0678
     29 H3          0.8092    6.0415    0.5392 H         1 <0>         0.0647
     30 H4         -2.1875    3.9807    0.0438 H         1 <0>         0.1311
     31 H5         -2.1574    1.5206    0.0209 H         1 <0>         0.1261
     32 H6          2.1188    1.5789   -0.0097 H         1 <0>         0.1309
     33 H7          0.8486   -0.4776   -0.0086 H         1 <0>         0.4013
     34 H8         -1.8231   -0.5030    0.9068 H         1 <0>         0.0763
     35 H9         -1.8401   -0.4935   -0.8731 H         1 <0>         0.0766
     36 H10        -0.4273   -4.8045    2.1335 H         1 <0>         0.1460
     37 H11        -0.2025   -6.0184    0.0083 H         1 <0>         0.1453
     38 H12        -0.0425   -6.9268   -1.6437 H         1 <0>         0.1391
     39 H13         0.1482   -8.0294   -3.8333 H         1 <0>         0.1378
     40 H14        -0.1377   -6.7431   -5.9061 H         1 <0>         0.1388
     41 H15        -0.6181   -4.3345   -5.8249 H         1 <0>         0.1445
     42 H16        -1.8393   -2.2301    2.7204 H         1 <0>         0.4005
@<TRIPOS>BOND
     1    1    2 1
     2    1   27 1
     3    1   28 1
     4    1   29 1
     5    2    7 ar
     6    2    3 ar
     7    3    4 ar
     8    3   30 1
     9    4    5 ar
    10    4   31 1
    11    5    6 ar
    12    5    9 1
    13    6    7 ar
    14    6   32 1
    15    7    8 1
    16    9   10 1
    17    9   33 1
    18   10   11 1
    19   10   34 1
    20   10   35 1
    21   11   16 ar
    22   11   12 ar
    23   12   13 ar
    24   12   26 1
    25   13   14 ar
    26   13   36 1
    27   14   15 ar
    28   14   37 1
    29   15   21 1
    30   15   16 ar
    31   16   17 1
    32   17   18 1
    33   18   19 2
    34   18   20 1
    35   20   25 ar
    36   20   21 ar
    37   21   22 ar
    38   22   23 ar
    39   22   38 1
    40   23   24 ar
    41   23   39 1
    42   24   25 ar
    43   24   40 1
    44   25   41 1
    45   26   42 1
@<TRIPOS>MOLECULE
ZINC22072397
   40    42     0     0     0
SMALL
USER_CHARGES
N-(2-chlorophenyl)-2-(m-tolylamino)pyridine-3-carboxamide
@<TRIPOS>ATOM
      1 C1          5.4504    7.9877   -0.0972 C.3       1 <0>        -0.1164
      2 C2          5.6110    6.4893   -0.1009 C.ar      1 <0>        -0.0663
      3 C3          6.8740    5.9297   -0.0338 C.ar      1 <0>        -0.1462
      4 C4          7.0258    4.5554   -0.0370 C.ar      1 <0>        -0.0988
      5 C5          5.9153    3.7365   -0.1013 C.ar      1 <0>        -0.1508
      6 C6          4.6458    4.2952   -0.1741 C.ar      1 <0>         0.1589
      7 C7          4.4969    5.6765   -0.1707 C.ar      1 <0>        -0.1567
      8 N1          3.5202    3.4695   -0.2447 N.pl3     1 <0>        -0.6502
      9 C8          3.5649    2.1920    0.2850 C.ar      1 <0>         0.4543
     10 C9          2.3804    1.4457    0.4115 C.ar      1 <0>        -0.2656
     11 C10         2.4518    0.1536    0.9443 C.ar      1 <0>         0.0068
     12 C11         3.6893   -0.3312    1.3297 C.ar      1 <0>        -0.2385
     13 C12         4.8102    0.4657    1.1795 C.ar      1 <0>         0.1843
     14 N2          4.7224    1.6808    0.6748 N.ar      1 <0>        -0.5348
     15 C13         1.0877    2.0113   -0.0150 C.2       1 <0>         0.5888
     16 O1          1.0536    3.0769   -0.6002 O.2       1 <0>        -0.5320
     17 N3         -0.0565    1.3476    0.2436 N.am      1 <0>        -0.6732
     18 C14        -1.2846    1.8917   -0.1477 C.ar      1 <0>         0.1597
     19 C15        -1.3649    2.6790   -1.2888 C.ar      1 <0>        -0.1143
     20 C16        -2.5797    3.2104   -1.6755 C.ar      1 <0>        -0.0936
     21 C17        -3.7138    2.9685   -0.9219 C.ar      1 <0>        -0.1221
     22 C18        -3.6372    2.1895    0.2179 C.ar      1 <0>        -0.0903
     23 C19        -2.4257    1.6502    0.6078 C.ar      1 <0>        -0.0657
     24 Cl1        -2.3297    0.6731    2.0394 Cl        1 <0>        -0.0642
     25 H1          6.4409    8.4625   -0.0373 H         1 <0>         0.0662
     26 H2          4.8460    8.2895    0.7709 H         1 <0>         0.0686
     27 H3          4.9472    8.3048   -1.0225 H         1 <0>         0.0692
     28 H4          7.7437    6.5677    0.0214 H         1 <0>         0.1187
     29 H5          8.0135    4.1216    0.0158 H         1 <0>         0.1218
     30 H6          6.0343    2.6631   -0.0992 H         1 <0>         0.1667
     31 H7          3.5109    6.1141   -0.2223 H         1 <0>         0.1202
     32 H8          2.5988    3.8353   -0.7214 H         1 <0>         0.4563
     33 H9          1.5630   -0.4505    1.0518 H         1 <0>         0.1358
     34 H10         3.7794   -1.3243    1.7443 H         1 <0>         0.1427
     35 H11         5.7750    0.0854    1.4809 H         1 <0>         0.1660
     36 H12        -0.0248    0.3781    0.7623 H         1 <0>         0.4370
     37 H13        -0.4790    2.8726   -1.8755 H         1 <0>         0.1502
     38 H14        -2.6432    3.8197   -2.5650 H         1 <0>         0.1342
     39 H15        -4.6614    3.3893   -1.2241 H         1 <0>         0.1348
     40 H16        -4.5247    2.0025    0.8042 H         1 <0>         0.1384
@<TRIPOS>BOND
     1    1    2 1
     2    1   25 1
     3    1   26 1
     4    1   27 1
     5    2    7 ar
     6    2    3 ar
     7    3    4 ar
     8    3   28 1
     9    4    5 ar
    10    4   29 1
    11    5    6 ar
    12    5   30 1
    13    6    7 ar
    14    6    8 1
    15    7   31 1
    16    8    9 1
    17    8   32 1
    18    9   14 ar
    19    9   10 ar
    20   10   11 ar
    21   10   15 1
    22   11   12 ar
    23   11   33 1
    24   12   13 ar
    25   12   34 1
    26   13   14 ar
    27   13   35 1
    28   15   16 2
    29   15   17 am
    30   17   18 1
    31   17   36 1
    32   18   23 ar
    33   18   19 ar
    34   19   20 ar
    35   19   37 1
    36   20   21 ar
    37   20   38 1
    38   21   22 ar
    39   21   39 1
    40   22   23 ar
    41   22   40 1
    42   23   24 1
@<TRIPOS>MOLECULE
ZINC13129977
   51    54     0     0     0
SMALL
USER_CHARGES

@<TRIPOS>ATOM
      1 C1          0.0949    0.2392   -1.0810 C.3       1 <0>        -0.1509
      2 C2          0.0491   -1.0435   -0.2482 C.3       1 <0>         0.0505
      3 N1         -1.3497   -1.4075    0.0139 N.3       1 <0>        -0.5330
      4 C3         -2.0010   -0.4107    0.8834 C.3       1 <0>         0.0946
      5 C4         -3.4707   -0.7709    0.9435 C.2       1 <0>        -0.0642
      6 C5         -4.4235    0.1770    0.8980 C.2       1 <0>        -0.0850
      7 C6         -5.8276   -0.2007    0.6607 C.ar      1 <0>        -0.0491
      8 C7         -6.1423   -1.1673   -0.2986 C.ar      1 <0>        -0.0800
      9 C8         -7.4590   -1.5156   -0.5152 C.ar      1 <0>        -0.1319
     10 C9         -8.4674   -0.9104    0.2141 C.ar      1 <0>        -0.1212
     11 C10        -8.1636    0.0474    1.1656 C.ar      1 <0>        -0.1226
     12 C11        -6.8511    0.4016    1.3978 C.ar      1 <0>        -0.1018
     13 C12        -3.8189   -2.2027    1.0545 C.2       1 <0>         0.1058
     14 C13        -2.8718   -3.1272    0.8895 C.2       1 <0>        -0.1435
     15 C14        -1.4426   -2.7454    0.6005 C.3       1 <0>         0.1054
     16 C15        -3.2125   -4.5947    0.9909 C.3       1 <0>         0.0851
     17 H1         -2.6977   -5.1397    0.1996 H         1 <0>         0.0935
     18 C16        -4.6941   -4.8002    0.8526 C.2       1 <0>        -0.2862
     19 C17        -5.5560   -3.7672    1.0258 C.2       1 <0>         0.4423
     20 O1         -5.1050   -2.5364    1.3233 O.3       1 <0>        -0.2325
     21 N2         -6.9055   -3.9813    0.8953 N.pl3     1 <0>        -0.8293
     22 C18        -5.2021   -6.1007    0.5341 C.1       1 <0>         0.2751
     23 N3         -5.6051   -7.1323    0.2814 N.1       1 <0>        -0.4507
     24 C19        -2.7636   -5.1191    2.3305 C.ar      1 <0>        -0.0739
     25 C20        -3.2799   -4.5777    3.4929 C.ar      1 <0>        -0.1018
     26 C21        -2.8681   -5.0586    4.7217 C.ar      1 <0>        -0.1192
     27 C22        -1.9405   -6.0814    4.7881 C.ar      1 <0>        -0.1216
     28 C23        -1.4249   -6.6234    3.6257 C.ar      1 <0>        -0.1183
     29 C24        -1.8399   -6.1453    2.3968 C.ar      1 <0>        -0.1132
     30 H2          1.1329    0.5093   -1.2755 H         1 <0>         0.0622
     31 H3         -0.4217    0.0769   -2.0270 H         1 <0>         0.0654
     32 H4         -0.3939    1.0453   -0.5338 H         1 <0>         0.0552
     33 H5          0.5379   -1.8496   -0.7954 H         1 <0>         0.0803
     34 H6          0.5657   -0.8811    0.6978 H         1 <0>         0.0386
     35 H7         -1.5674   -0.4488    1.8828 H         1 <0>         0.0555
     36 H8         -1.8794    0.5870    0.4617 H         1 <0>         0.1012
     37 H9         -4.1594    1.2151    1.0355 H         1 <0>         0.1355
     38 H10        -5.3564   -1.6399   -0.8690 H         1 <0>         0.1173
     39 H11        -7.7038   -2.2623   -1.2561 H         1 <0>         0.1212
     40 H12        -9.4968   -1.1867    0.0396 H         1 <0>         0.1216
     41 H13        -8.9559    0.5157    1.7307 H         1 <0>         0.1227
     42 H14        -6.6151    1.1460    2.1438 H         1 <0>         0.1233
     43 H15        -1.0146   -3.4687   -0.0936 H         1 <0>         0.0936
     44 H16        -0.8737   -2.7666    1.5300 H         1 <0>         0.0547
     45 H17        -7.2331   -4.8441    0.5968 H         1 <0>         0.4223
     46 H18        -7.5317   -3.2697    1.1016 H         1 <0>         0.4100
     47 H19        -4.0046   -3.7786    3.4410 H         1 <0>         0.1146
     48 H20        -3.2709   -4.6352    5.6299 H         1 <0>         0.1199
     49 H21        -1.6182   -6.4567    5.7482 H         1 <0>         0.1203
     50 H22        -0.6999   -7.4222    3.6775 H         1 <0>         0.1215
     51 H23        -1.4399   -6.5714    1.4885 H         1 <0>         0.1208
@<TRIPOS>BOND
     1    1    2 1
     2    1   30 1
     3    1   31 1
     4    1   32 1
     5    2    3 1
     6    2   33 1
     7    2   34 1
     8    3   15 1
     9    3    4 1
    10    4    5 1
    11    4   35 1
    12    4   36 1
    13    5    6 2
    14    5   13 1
    15    6    7 1
    16    6   37 1
    17    7   12 ar
    18    7    8 ar
    19    8    9 ar
    20    8   38 1
    21    9   10 ar
    22    9   39 1
    23   10   11 ar
    24   10   40 1
    25   11   12 ar
    26   11   41 1
    27   12   42 1
    28   13   20 1
    29   13   14 2
    30   14   15 1
    31   14   16 1
    32   15   43 1
    33   15   44 1
    34   16   17 1
    35   16   18 1
    36   16   24 1
    37   18   19 2
    38   18   22 1
    39   19   20 1
    40   19   21 1
    41   21   45 1
    42   21   46 1
    43   22   23 3
    44   24   29 ar
    45   24   25 ar
    46   25   26 ar
    47   25   47 1
    48   26   27 ar
    49   26   48 1
    50   27   28 ar
    51   27   49 1
    52   28   29 ar
    53   28   50 1
    54   29   51 1
@<TRIPOS>MOLECULE
ZINC13520042
   50    55     0     0     0
SMALL
USER_CHARGES

@<TRIPOS>ATOM
      1 C1         -0.0167    1.3779    0.0096 C.ar      1 <0>        -0.0863
      2 C2          1.1696    2.0885    0.0021 C.ar      1 <0>        -0.0965
      3 C3          2.3803    1.4160   -0.0135 C.ar      1 <0>         0.0413
      4 C4          2.3992    0.0230   -0.0212 C.ar      1 <0>         0.0354
      5 C5          1.2071   -0.6821   -0.0137 C.ar      1 <0>        -0.0847
      6 C6          0.0021   -0.0041    0.0020 C.ar      1 <0>        -0.1022
      7 C7         -1.2936   -0.7736    0.0102 C.3       1 <0>         0.2051
      8 H1         -1.0775   -1.7839    0.3579 H         1 <0>         0.1003
      9 C8         -1.7880   -0.8684   -1.4180 C.2       1 <0>        -0.2115
     10 C9         -2.9842   -0.3810   -1.6955 C.2       1 <0>         0.1190
     11 N1         -3.7687    0.2016   -0.7139 N.pl3     1 <0>        -0.6059
     12 C10        -3.3859    0.3146    0.5652 C.2       1 <0>         0.5685
     13 S1         -4.4440    1.0552    1.6890 S.2       1 <0>        -0.6239
     14 N2         -2.1905   -0.1396    0.9906 N.pl3     1 <0>        -0.6555
     15 C11        -3.5049   -0.4599   -3.1074 C.3       1 <0>        -0.0126
     16 C12        -3.7790    0.9518   -3.6297 C.3       1 <0>        -0.1031
     17 C13        -4.3077    0.8716   -5.0632 C.3       1 <0>        -0.0843
     18 C14        -5.6042    0.0596   -5.0839 C.3       1 <0>        -0.1118
     19 C15        -5.3302   -1.3522   -4.5617 C.3       1 <0>        -0.0844
     20 C16        -4.8015   -1.2720   -3.1282 C.3       1 <0>        -0.1035
     21 C17        -4.2882   -2.0321   -5.4522 C.3       1 <0>        -0.1107
     22 C18        -2.9917   -1.2200   -5.4315 C.3       1 <0>        -0.0847
     23 C19        -3.2658    0.1917   -5.9537 C.3       1 <0>        -0.1106
     24 C20        -2.4630   -1.1398   -3.9980 C.3       1 <0>        -0.1016
     25 O1          3.6984   -0.3954   -0.0364 O.3       1 <0>        -0.3064
     26 C21         4.4664    0.7501   -0.4501 C.3       1 <0>         0.2128
     27 O2          3.6676    1.8697   -0.0238 O.3       1 <0>        -0.3067
     28 H2         -0.9598    1.9039    0.0259 H         1 <0>         0.1313
     29 H3          1.1520    3.1683    0.0081 H         1 <0>         0.1388
     30 H4          1.2188   -1.7620   -0.0196 H         1 <0>         0.1399
     31 H5         -1.1802   -1.3210   -2.1875 H         1 <0>         0.1683
     32 H6         -4.6400    0.5459   -0.9655 H         1 <0>         0.4349
     33 H7         -1.9277   -0.0505    1.9201 H         1 <0>         0.4442
     34 H8         -4.5212    1.4362   -2.9952 H         1 <0>         0.0637
     35 H9         -2.8553    1.5303   -3.6149 H         1 <0>         0.0693
     36 H10        -4.5029    1.8774   -5.4352 H         1 <0>         0.0751
     37 H11        -6.3465    0.5439   -4.4495 H         1 <0>         0.0640
     38 H12        -5.9808    0.0024   -6.1052 H         1 <0>         0.0661
     39 H13        -6.2538   -1.9307   -4.5764 H         1 <0>         0.0752
     40 H14        -4.6062   -2.2778   -2.7561 H         1 <0>         0.0697
     41 H15        -5.5437   -0.7876   -2.4937 H         1 <0>         0.0638
     42 H16        -4.0930   -3.0379   -5.0802 H         1 <0>         0.0639
     43 H17        -4.6649   -2.0892   -6.4735 H         1 <0>         0.0655
     44 H18        -2.2494   -1.7044   -6.0659 H         1 <0>         0.0756
     45 H19        -3.6424    0.1346   -6.9750 H         1 <0>         0.0655
     46 H20        -2.3421    0.7703   -5.9390 H         1 <0>         0.0634
     47 H21        -1.5393   -0.5613   -3.9832 H         1 <0>         0.0718
     48 H22        -2.2678   -2.1456   -3.6259 H         1 <0>         0.0722
     49 H23         5.4365    0.7605    0.0468 H         1 <0>         0.1350
     50 H24         4.5896    0.7578   -1.5331 H         1 <0>         0.0875
@<TRIPOS>BOND
     1    1    6 ar
     2    1    2 ar
     3    1   28 1
     4    2    3 ar
     5    2   29 1
     6    3   27 1
     7    3    4 ar
     8    4    5 ar
     9    4   25 1
    10    5    6 ar
    11    5   30 1
    12    6    7 1
    13    7    8 1
    14    7   14 1
    15    7    9 1
    16    9   10 2
    17    9   31 1
    18   10   11 1
    19   10   15 1
    20   11   12 1
    21   11   32 1
    22   12   13 2
    23   12   14 1
    24   14   33 1
    25   15   20 1
    26   15   24 1
    27   15   16 1
    28   16   17 1
    29   16   34 1
    30   16   35 1
    31   17   23 1
    32   17   18 1
    33   17   36 1
    34   18   19 1
    35   18   37 1
    36   18   38 1
    37   19   20 1
    38   19   21 1
    39   19   39 1
    40   20   40 1
    41   20   41 1
    42   21   22 1
    43   21   42 1
    44   21   43 1
    45   22   23 1
    46   22   24 1
    47   22   44 1
    48   23   45 1
    49   23   46 1
    50   24   47 1
    51   24   48 1
    52   25   26 1
    53   26   27 1
    54   26   49 1
    55   26   50 1
@<TRIPOS>MOLECULE
ZINC61845130
   29    31     0     0     0
SMALL
USER_CHARGES

@<TRIPOS>ATOM
      1 C1          0.0480    2.5622    1.2018 C.ar      1 <0>        -0.1545
      2 C2          1.2925    3.0997    0.9451 C.ar      1 <0>        -0.0340
      3 C3          2.4080    2.2678    0.8766 C.ar      1 <0>        -0.0460
      4 C4          2.2611    0.8940    1.0681 C.ar      1 <0>         0.0346
      5 C5          1.0117    0.3650    1.3244 C.ar      1 <0>        -0.1551
      6 C6         -0.0942    1.1970    1.3915 C.ar      1 <0>         0.1445
      7 F1         -1.3149    0.6755    1.6426 F         1 <0>        -0.1227
      8 Cl1         3.6463   -0.1489    0.9836 Cl        1 <0>        -0.0066
      9 C7          3.7483    2.8415    0.6003 C.2       1 <0>         0.2980
     10 N1          4.8914    2.1446    0.5054 N.2       1 <0>        -0.5064
     11 C8          5.8917    2.9580    0.2527 C.2       1 <0>         0.3484
     12 O1          5.4069    4.2104    0.1789 O.3       1 <0>        -0.0981
     13 N2          4.0086    4.1115    0.4034 N.2       1 <0>        -0.3306
     14 C9          7.3036    2.5654    0.0805 C.ar      1 <0>        -0.1282
     15 C10         7.9040    1.6880    0.9858 C.ar      1 <0>         0.0199
     16 C11         9.2239    1.3246    0.8191 C.ar      1 <0>        -0.1556
     17 C12         9.9588    1.8261   -0.2438 C.ar      1 <0>        -0.0073
     18 C13         9.3782    2.6946   -1.1461 C.ar      1 <0>        -0.1931
     19 C14         8.0488    3.0669   -0.9970 C.ar      1 <0>         0.2809
     20 N3          7.4601    3.9373   -1.9090 N.pl3     1 <0>        -0.8558
     21 Br1        10.0351    0.1368    2.0467 Br        1 <0>        -0.0407
     22 H1         -0.8163    3.2073    1.2594 H         1 <0>         0.1541
     23 H2          1.4018    4.1639    0.7972 H         1 <0>         0.1528
     24 H3          0.8963   -0.6985    1.4729 H         1 <0>         0.1576
     25 H4          7.3356    1.2949    1.8157 H         1 <0>         0.1441
     26 H5         10.9918    1.5360   -0.3665 H         1 <0>         0.1428
     27 H6          9.9574    3.0815   -1.9715 H         1 <0>         0.1437
     28 H7          6.5105    4.1274   -1.8546 H         1 <0>         0.4031
     29 H8          7.9994    4.3541   -2.5992 H         1 <0>         0.4102
@<TRIPOS>BOND
     1    1    6 ar
     2    1    2 ar
     3    1   22 1
     4    2    3 ar
     5    2   23 1
     6    3    4 ar
     7    3    9 1
     8    4    5 ar
     9    4    8 1
    10    5    6 ar
    11    5   24 1
    12    6    7 1
    13    9   13 2
    14    9   10 1
    15   10   11 2
    16   11   12 1
    17   11   14 1
    18   12   13 1
    19   14   19 ar
    20   14   15 ar
    21   15   16 ar
    22   15   25 1
    23   16   17 ar
    24   16   21 1
    25   17   18 ar
    26   17   26 1
    27   18   19 ar
    28   18   27 1
    29   19   20 1
    30   20   28 1
    31   20   29 1
@<TRIPOS>MOLECULE
ZINC03051839
   54    57     0     0     0
SMALL
USER_CHARGES

@<TRIPOS>ATOM
      1 C1         -0.0167    1.3782    0.0096 C.ar      1 <0>        -0.0826
      2 C2          1.1706    2.0858    0.0021 C.ar      1 <0>        -0.1273
      3 C3          2.3780    1.4104   -0.0130 C.ar      1 <0>        -0.0289
      4 C4          2.3961    0.0270   -0.0206 C.ar      1 <0>        -0.1238
      5 C5          1.2082   -0.6795   -0.0130 C.ar      1 <0>        -0.0721
      6 C6          0.0021   -0.0041    0.0020 C.ar      1 <0>        -0.0987
      7 C7         -1.2928   -0.7750    0.0107 C.3       1 <0>         0.1316
      8 N1         -1.7261   -1.0173   -1.3676 N.pl3     1 <0>        -0.4888
      9 C8         -2.5195   -0.1153   -1.9848 C.2       1 <0>         0.5046
     10 O1         -2.9161    1.0019   -1.3505 O.3       1 <0>        -0.6066
     11 C9         -2.9213   -0.3750   -3.3123 C.ar      1 <0>        -0.2219
     12 C10        -3.7438    0.5145   -4.0182 C.ar      1 <0>        -0.0126
     13 C11        -4.1101    0.2295   -5.2982 C.ar      1 <0>        -0.1673
     14 C12        -3.6741   -0.9482   -5.9251 C.ar      1 <0>        -0.0820
     15 C13        -2.8609   -1.8457   -5.2529 C.ar      1 <0>        -0.0724
     16 C14        -2.4727   -1.5699   -3.9339 C.ar      1 <0>         0.2128
     17 N2         -1.6865   -2.4093   -3.2452 N.2       1 <0>        -0.5502
     18 C15        -1.3242   -2.1311   -2.0022 C.2       1 <0>         0.5029
     19 S1         -0.3127   -3.2344   -1.1713 S.2       1 <0>        -0.7018
     20 C16        -4.0879   -1.2342   -7.3184 C.2       1 <0>         0.5612
     21 O2         -3.7137   -2.2520   -7.8666 O.2       1 <0>        -0.5313
     22 N3         -4.8794   -0.3654   -7.9781 N.am      1 <0>        -0.7295
     23 C17        -5.2886   -0.6482   -9.3561 C.3       1 <0>         0.1259
     24 C18        -6.1767    0.4877   -9.8678 C.3       1 <0>        -0.1000
     25 C19        -6.5976    0.1968  -11.2852 C.2       1 <0>        -0.1179
     26 C20        -7.7426   -0.3771  -11.4727 C.2       1 <0>        -0.1511
     27 C21        -8.2911   -0.7386  -12.8219 C.3       1 <0>        -0.0904
     28 C22        -7.5432    0.0253  -13.9168 C.3       1 <0>        -0.1211
     29 C23        -6.0365   -0.1418  -13.6823 C.3       1 <0>        -0.1210
     30 C24        -5.6659    0.5958  -12.3919 C.3       1 <0>        -0.0846
     31 Cl1         3.8696    2.2984   -0.0231 Cl        1 <0>        -0.0853
     32 H1         -0.9592    1.9053    0.0259 H         1 <0>         0.1377
     33 H2          1.1558    3.1656    0.0076 H         1 <0>         0.1282
     34 H3          3.3383   -0.5007   -0.0327 H         1 <0>         0.1305
     35 H4          1.2222   -1.7594   -0.0193 H         1 <0>         0.1647
     36 H5         -1.1447   -1.7283    0.5180 H         1 <0>         0.1267
     37 H6         -2.0551   -0.1989    0.5352 H         1 <0>         0.0986
     38 H7         -4.0864    1.4240   -3.5472 H         1 <0>         0.1354
     39 H8         -4.7441    0.9177   -5.8375 H         1 <0>         0.1218
     40 H9         -2.5288   -2.7504   -5.7404 H         1 <0>         0.1462
     41 H10        -5.1781    0.4471   -7.5406 H         1 <0>         0.4015
     42 H11        -4.4044   -0.7310   -9.9880 H         1 <0>         0.0690
     43 H12        -5.8447   -1.5853   -9.3849 H         1 <0>         0.0687
     44 H13        -7.0609    0.5705   -9.2359 H         1 <0>         0.0750
     45 H14        -5.6206    1.4248   -9.8390 H         1 <0>         0.0763
     46 H15        -8.3403   -0.6106  -10.6039 H         1 <0>         0.1038
     47 H16        -8.1738   -1.8100  -12.9844 H         1 <0>         0.0732
     48 H17        -9.3499   -0.4829  -12.8619 H         1 <0>         0.0697
     49 H18        -7.8092   -0.3798  -14.8932 H         1 <0>         0.0633
     50 H19        -7.8061    1.0821  -13.8712 H         1 <0>         0.0632
     51 H20        -5.7960   -1.2005  -13.5853 H         1 <0>         0.0657
     52 H21        -5.4856    0.2870  -14.5194 H         1 <0>         0.0646
     53 H22        -5.7365    1.6715  -12.5534 H         1 <0>         0.0731
     54 H23        -4.6435    0.3407  -12.1131 H         1 <0>         0.0729
@<TRIPOS>BOND
     1    1    6 ar
     2    1    2 ar
     3    1   32 1
     4    2    3 ar
     5    2   33 1
     6    3    4 ar
     7    3   31 1
     8    4    5 ar
     9    4   34 1
    10    5    6 ar
    11    5   35 1
    12    6    7 1
    13    7    8 1
    14    7   36 1
    15    7   37 1
    16    8   18 1
    17    8    9 1
    18    9   10 1
    19    9   11 2
    20   11   16 ar
    21   11   12 ar
    22   12   13 ar
    23   12   38 1
    24   13   14 ar
    25   13   39 1
    26   14   15 ar
    27   14   20 1
    28   15   16 ar
    29   15   40 1
    30   16   17 2
    31   17   18 1
    32   18   19 2
    33   20   21 2
    34   20   22 am
    35   22   23 1
    36   22   41 1
    37   23   24 1
    38   23   42 1
    39   23   43 1
    40   24   25 1
    41   24   44 1
    42   24   45 1
    43   25   30 1
    44   25   26 2
    45   26   27 1
    46   26   46 1
    47   27   28 1
    48   27   47 1
    49   27   48 1
    50   28   29 1
    51   28   49 1
    52   28   50 1
    53   29   30 1
    54   29   51 1
    55   29   52 1
    56   30   53 1
    57   30   54 1
@<TRIPOS>MOLECULE
ZINC33532737
   55    58     0     0     0
SMALL
USER_CHARGES
(2S)-4-hydroxy-2-(4-isopropylphenyl)-1-phenethyl-3-(thiophene-2-carbonyl)-2H-pyrrol-5-one
@<TRIPOS>ATOM
      1 C1          4.0557    0.3388    5.2202 C.3       1 <0>        -0.1432
      2 C2          2.6986    0.6182    4.5714 C.3       1 <0>        -0.0532
      3 C3          1.7744    1.2880    5.5904 C.3       1 <0>        -0.1453
      4 C4          2.8864    1.5313    3.3873 C.ar      1 <0>        -0.0883
      5 C5          2.5077    1.1132    2.1253 C.ar      1 <0>        -0.1198
      6 C6          2.6799    1.9507    1.0391 C.ar      1 <0>        -0.1136
      7 C7          3.2300    3.2066    1.2151 C.ar      1 <0>        -0.0764
      8 C8          3.6131    3.6228    2.4764 C.ar      1 <0>        -0.0877
      9 C9          3.4369    2.7870    3.5632 C.ar      1 <0>        -0.1149
     10 C10         3.4177    4.1197    0.0309 C.3       1 <0>         0.2661
     11 H1          3.3733    3.5101   -0.8837 H         1 <0>         0.0679
     12 C11         2.3703    5.2085    0.0431 C.2       1 <0>        -0.5002
     13 C12         3.0316    6.3854    0.1246 C.2       1 <0>         0.2669
     14 C13         4.4840    6.1243    0.1766 C.2       1 <0>         0.5131
     15 O1          5.3438    6.9794    0.2548 O.2       1 <0>        -0.5339
     16 N1          4.7152    4.8001    0.1189 N.am      1 <0>        -0.6101
     17 C14         6.0291    4.1524    0.1396 C.3       1 <0>         0.1439
     18 C15         6.5455    4.0004   -1.2925 C.3       1 <0>        -0.1023
     19 C16         7.8970    3.3341   -1.2712 C.ar      1 <0>        -0.0716
     20 C17         9.0444    4.1008   -1.1907 C.ar      1 <0>        -0.1142
     21 C18        10.2840    3.4894   -1.1667 C.ar      1 <0>        -0.1194
     22 C19        10.3765    2.1117   -1.2324 C.ar      1 <0>        -0.1291
     23 C20         9.2293    1.3453   -1.3181 C.ar      1 <0>        -0.1207
     24 C21         7.9895    1.9565   -1.3378 C.ar      1 <0>        -0.1156
     25 O2          2.4533    7.6091    0.1565 O.3       1 <0>        -0.6518
     26 C22         0.9156    5.0247   -0.0266 C.2       1 <0>         0.5422
     27 O3          0.2165    5.3319    0.9230 O.2       1 <0>        -0.4623
     28 C23         0.3042    4.4717   -1.2379 C.2       1 <0>        -0.2041
     29 C24        -1.0204    4.1236   -1.4696 C.2       1 <0>        -0.1171
     30 C25        -1.3271    3.6281   -2.7108 C.2       1 <0>        -0.1705
     31 C26        -0.3381    3.4923   -3.6350 C.2       1 <0>        -0.2260
     32 S1          1.0669    4.0705   -2.8001 S.3       1 <0>         0.1620
     33 H2          4.7201   -0.1427    4.4876 H         1 <0>         0.0546
     34 H3          3.9186   -0.3276    6.0845 H         1 <0>         0.0536
     35 H4          4.5040    1.2859    5.5549 H         1 <0>         0.0568
     36 H5          2.2502   -0.3235    4.2220 H         1 <0>         0.0730
     37 H6          0.7987    1.4889    5.1239 H         1 <0>         0.0568
     38 H7          2.2228    2.2351    5.9251 H         1 <0>         0.0575
     39 H8          1.6374    0.6215    6.4547 H         1 <0>         0.0535
     40 H9          2.0776    0.1321    1.9878 H         1 <0>         0.1145
     41 H10         2.3844    1.6240    0.0530 H         1 <0>         0.1171
     42 H11         4.0470    4.6024    2.6132 H         1 <0>         0.1156
     43 H12         3.7325    3.1137    4.5492 H         1 <0>         0.1145
     44 H13         6.7323    4.7682    0.7195 H         1 <0>         0.0791
     45 H14         5.9412    3.1596    0.6050 H         1 <0>         0.0770
     46 H15         5.8423    3.3847   -1.8724 H         1 <0>         0.0773
     47 H16         6.6335    4.9932   -1.7579 H         1 <0>         0.0792
     48 H17         8.9723    5.1774   -1.1432 H         1 <0>         0.1234
     49 H18        11.1802    4.0882   -1.0993 H         1 <0>         0.1194
     50 H19        11.3450    1.6342   -1.2163 H         1 <0>         0.1175
     51 H20         9.3016    0.2689   -1.3694 H         1 <0>         0.1189
     52 H21         7.0933    1.3576   -1.4048 H         1 <0>         0.1217
     53 H22        -1.7761    4.2424   -0.7073 H         1 <0>         0.1392
     54 H23        -2.3415    3.3455   -2.9508 H         1 <0>         0.1282
     55 H24        -0.4113    3.1190   -4.6458 H         1 <0>         0.1808
@<TRIPOS>BOND
     1    1    2 1
     2    1   33 1
     3    1   34 1
     4    1   35 1
     5    2    3 1
     6    2    4 1
     7    2   36 1
     8    3   37 1
     9    3   38 1
    10    3   39 1
    11    4    9 ar
    12    4    5 ar
    13    5    6 ar
    14    5   40 1
    15    6    7 ar
    16    6   41 1
    17    7    8 ar
    18    7   10 1
    19    8    9 ar
    20    8   42 1
    21    9   43 1
    22   10   11 1
    23   10   16 1
    24   10   12 1
    25   12   13 2
    26   12   26 1
    27   13   14 1
    28   13   25 1
    29   14   15 2
    30   14   16 am
    31   16   17 1
    32   17   18 1
    33   17   44 1
    34   17   45 1
    35   18   19 1
    36   18   46 1
    37   18   47 1
    38   19   24 ar
    39   19   20 ar
    40   20   21 ar
    41   20   48 1
    42   21   22 ar
    43   21   49 1
    44   22   23 ar
    45   22   50 1
    46   23   24 ar
    47   23   51 1
    48   24   52 1
    49   26   27 2
    50   26   28 1
    51   28   32 1
    52   28   29 2
    53   29   30 1
    54   29   53 1
    55   30   31 2
    56   30   54 1
    57   31   32 1
    58   31   55 1
@<TRIPOS>MOLECULE
ZINC31158331
   69    71     0     0     0
SMALL
USER_CHARGES

@<TRIPOS>ATOM
      1 C1         -0.8492    1.8396   -2.3015 C.3       1 <0>        -0.1467
      2 C2         -0.8716    0.7017   -1.2791 C.3       1 <0>        -0.0862
      3 C3         -0.7626    1.2820    0.1324 C.3       1 <0>        -0.1566
      4 C4         -2.1824   -0.0765   -1.4108 C.3       1 <0>        -0.1102
      5 C5         -2.1530   -1.2694   -0.4904 C.2       1 <0>         0.4532
      6 O1         -1.1832   -1.4760    0.2000 O.2       1 <0>        -0.5022
      7 O2         -3.2043   -2.1024   -0.4376 O.3       1 <0>        -0.3534
      8 C6         -3.1080   -3.2126    0.4569 C.3       1 <0>         0.0533
      9 C7         -4.3717   -4.0300    0.3809 C.2       1 <0>        -0.1150
     10 C8         -5.4321   -3.5600    0.9566 C.2       1 <0>        -0.1110
     11 C9         -6.7603   -4.2565    0.9387 C.3       1 <0>        -0.0866
     12 C10        -6.6134   -5.7086    0.5184 C.3       1 <0>        -0.0566
     13 H1         -7.6043   -6.0366    0.2041 H         1 <0>         0.0515
     14 C11        -5.7157   -5.8565   -0.6903 C.3       1 <0>        -0.0290
     15 C12        -4.3210   -5.3253   -0.3579 C.3       1 <0>         0.1410
     16 C13        -3.5034   -5.1659   -1.6599 C.3       1 <0>        -0.1414
     17 C14        -2.0488   -5.3121   -1.1483 C.3       1 <0>        -0.1604
     18 C15        -2.1941   -6.0410    0.2019 C.3       1 <0>         0.1085
     19 O3         -3.5934   -6.3131    0.3932 O.3       1 <0>        -0.2784
     20 C16        -1.6785   -5.1488    1.3328 C.3       1 <0>        -0.1721
     21 C17        -1.4084   -7.3535    0.1717 C.3       1 <0>        -0.1799
     22 C18        -1.5566   -8.0583    1.4955 C.2       1 <0>         0.4949
     23 O4         -2.2285   -7.5573    2.3810 O.co2     1 <0>        -0.6675
     24 O5         -1.0047   -9.1295    1.6809 O.co2     1 <0>        -0.7135
     25 C19        -5.5941   -7.2978   -1.1408 C.3       1 <0>        -0.0877
     26 C20        -5.4044   -8.3026   -0.0422 C.3       1 <0>        -0.1176
     27 C21        -6.1844   -8.0675    1.2250 C.3       1 <0>        -0.0892
     28 C22        -6.2092   -6.6134    1.6551 C.3       1 <0>        -0.0504
     29 C23        -4.8232   -6.2002    2.1541 C.3       1 <0>        -0.1832
     30 C24        -7.2157   -6.4610    2.7973 C.3       1 <0>        -0.1412
     31 C25        -6.2939   -5.0342   -1.8437 C.3       1 <0>        -0.1441
     32 H2          0.0846    2.3940   -2.2077 H         1 <0>         0.0594
     33 H3         -0.9269    1.4262   -3.3071 H         1 <0>         0.0561
     34 H4         -1.6893    2.5094   -2.1182 H         1 <0>         0.0559
     35 H5         -0.0315    0.0319   -1.4624 H         1 <0>         0.0804
     36 H6         -1.6028    1.9518    0.3157 H         1 <0>         0.0493
     37 H7         -0.7786    0.4713    0.8608 H         1 <0>         0.0731
     38 H8          0.1712    1.8363    0.2262 H         1 <0>         0.0548
     39 H9         -3.0174    0.5701   -1.1410 H         1 <0>         0.1020
     40 H10        -2.3024   -0.4145   -2.4400 H         1 <0>         0.1028
     41 H11        -2.2567   -3.8328    0.1760 H         1 <0>         0.1298
     42 H12        -2.9717   -2.8481    1.4751 H         1 <0>         0.0677
     43 H13        -5.3559   -2.6169    1.4774 H         1 <0>         0.1028
     44 H14        -7.1985   -4.2159    1.9359 H         1 <0>         0.0799
     45 H15        -7.4216   -3.7469    0.2380 H         1 <0>         0.0735
     46 H16        -3.7468   -5.9551   -2.3713 H         1 <0>         0.0785
     47 H17        -3.6635   -4.1825   -2.1020 H         1 <0>         0.0741
     48 H18        -1.4584   -5.9097   -1.8428 H         1 <0>         0.0718
     49 H19        -1.5944   -4.3317   -1.0055 H         1 <0>         0.0696
     50 H20        -2.5007   -4.5530    1.7293 H         1 <0>         0.0624
     51 H21        -1.2649   -5.7709    2.1266 H         1 <0>         0.0905
     52 H22        -0.9025   -4.4869    0.9484 H         1 <0>         0.0391
     53 H23        -1.7949   -7.9901   -0.6242 H         1 <0>         0.0583
     54 H24        -0.3549   -7.1421   -0.0114 H         1 <0>         0.0611
     55 H25        -6.4964   -7.5609   -1.6929 H         1 <0>         0.0445
     56 H26        -4.7472   -7.3728   -1.8229 H         1 <0>         0.0600
     57 H27        -5.6785   -9.2835   -0.4305 H         1 <0>         0.0432
     58 H28        -4.3450   -8.3279    0.2130 H         1 <0>         0.0835
     59 H29        -7.2064   -8.4151    1.0739 H         1 <0>         0.0370
     60 H30        -5.7348   -8.6565    2.0244 H         1 <0>         0.0609
     61 H31        -4.5670   -5.2222    1.7467 H         1 <0>         0.0735
     62 H32        -4.8291   -6.1501    3.2429 H         1 <0>         0.0173
     63 H33        -4.0860   -6.9340    1.8281 H         1 <0>         0.1501
     64 H34        -8.2097   -6.7364    2.4448 H         1 <0>         0.0414
     65 H35        -6.9296   -7.1126    3.6230 H         1 <0>         0.0520
     66 H36        -7.2248   -5.4257    3.1379 H         1 <0>         0.0514
     67 H37        -6.3469   -3.9855   -1.5513 H         1 <0>         0.0587
     68 H38        -5.6526   -5.1353   -2.7192 H         1 <0>         0.0572
     69 H39        -7.2940   -5.3959   -2.0822 H         1 <0>         0.0540
@<TRIPOS>BOND
     1    1    2 1
     2    1   32 1
     3    1   33 1
     4    1   34 1
     5    2    3 1
     6    2    4 1
     7    2   35 1
     8    3   36 1
     9    3   37 1
    10    3   38 1
    11    4    5 1
    12    4   39 1
    13    4   40 1
    14    5    6 2
    15    5    7 1
    16    7    8 1
    17    8    9 1
    18    8   41 1
    19    8   42 1
    20    9   15 1
    21    9   10 2
    22   10   11 1
    23   10   43 1
    24   11   12 1
    25   11   44 1
    26   11   45 1
    27   12   13 1
    28   12   28 1
    29   12   14 1
    30   14   15 1
    31   14   25 1
    32   14   31 1
    33   15   19 1
    34   15   16 1
    35   16   17 1
    36   16   46 1
    37   16   47 1
    38   17   18 1
    39   17   48 1
    40   17   49 1
    41   18   19 1
    42   18   20 1
    43   18   21 1
    44   20   50 1
    45   20   51 1
    46   20   52 1
    47   21   22 1
    48   21   53 1
    49   21   54 1
    50   22   23 2
    51   22   24 1
    52   25   26 1
    53   25   55 1
    54   25   56 1
    55   26   27 1
    56   26   57 1
    57   26   58 1
    58   27   28 1
    59   27   59 1
    60   27   60 1
    61   28   29 1
    62   28   30 1
    63   29   61 1
    64   29   62 1
    65   29   63 1
    66   30   64 1
    67   30   65 1
    68   30   66 1
    69   31   67 1
    70   31   68 1
    71   31   69 1
@<TRIPOS>MOLECULE
ZINC44299337
   56    57     0     0     0
SMALL
USER_CHARGES

@<TRIPOS>ATOM
      1 C1         -0.0187    1.5258    0.0104 C.3       1 <0>        -0.1527
      2 C2          0.0021   -0.0041    0.0020 C.3       1 <0>        -0.1201
      3 C3          0.7421   -0.5109    1.2415 C.3       1 <0>        -0.0795
      4 C4          0.7625   -2.0177    1.2333 C.ar      1 <0>        -0.0874
      5 C5         -0.2639   -2.7241    1.8340 C.ar      1 <0>        -0.1172
      6 C6         -0.2502   -4.1042    1.8294 C.ar      1 <0>        -0.1106
      7 C7          0.8000   -4.7859    1.2180 C.ar      1 <0>        -0.0403
      8 C8          1.8313   -4.0693    0.6144 C.ar      1 <0>        -0.1066
      9 C9          1.8047   -2.6894    0.6200 C.ar      1 <0>        -0.1136
     10 C10         0.8204   -6.2696    1.2103 C.ar      1 <0>        -0.0490
     11 C11        -0.2137   -6.9864    1.8094 C.ar      1 <0>        -0.1209
     12 C12        -0.1900   -8.3661    1.7989 C.ar      1 <0>        -0.1162
     13 C13         0.8579   -9.0378    1.1951 C.ar      1 <0>        -0.1109
     14 C14         1.8870   -8.3316    0.5994 C.ar      1 <0>        -0.0634
     15 C15         1.8705   -6.9512    0.5990 C.ar      1 <0>        -0.1035
     16 C16         3.0256   -9.0703   -0.0556 C.3       1 <0>        -0.0783
     17 C17         2.6900   -9.3236   -1.5267 C.3       1 <0>         0.1022
     18 H1          2.4488   -8.3781   -2.0124 H         1 <0>         0.0859
     19 C18         3.8763   -9.9519   -2.2115 C.2       1 <0>         0.4915
     20 O1          3.9915  -11.1653   -2.2402 O.co2     1 <0>        -0.6862
     21 O2          4.7209   -9.2468   -2.7369 O.co2     1 <0>        -0.6901
     22 N1          1.5397  -10.2263   -1.6167 N.am      1 <0>        -0.6733
     23 C19         0.7535  -10.2089   -2.7112 C.2       1 <0>         0.6498
     24 O3          0.9988   -9.4445   -3.6234 O.2       1 <0>        -0.5705
     25 O4         -0.3038  -11.0384   -2.7940 O.3       1 <0>        -0.3658
     26 C20        -1.0936  -10.9662   -3.9827 C.3       1 <0>         0.1354
     27 C21        -0.2200  -11.2913   -5.1960 C.3       1 <0>        -0.1858
     28 C22        -2.2405  -11.9751   -3.8950 C.3       1 <0>        -0.1368
     29 C23        -1.6659   -9.5549   -4.1298 C.3       1 <0>        -0.1834
     30 H2          1.0039    1.9031    0.0027 H         1 <0>         0.0540
     31 H3         -0.5459    1.8868   -0.8726 H         1 <0>         0.0541
     32 H4         -0.5289    1.8773    0.9072 H         1 <0>         0.0530
     33 H5         -1.0205   -0.3814    0.0098 H         1 <0>         0.0624
     34 H6          0.5123   -0.3556   -0.8948 H         1 <0>         0.0641
     35 H7          1.7647   -0.1336    1.2338 H         1 <0>         0.0708
     36 H8          0.2319   -0.1594    2.1383 H         1 <0>         0.0696
     37 H9         -1.0772   -2.1947    2.3079 H         1 <0>         0.1198
     38 H10        -1.0519   -4.6547    2.2991 H         1 <0>         0.1234
     39 H11         2.6479   -4.5927    0.1394 H         1 <0>         0.1284
     40 H12         2.6011   -2.1329    0.1482 H         1 <0>         0.1224
     41 H13        -1.0321   -6.4630    2.2814 H         1 <0>         0.1196
     42 H14        -0.9907   -8.9225    2.2632 H         1 <0>         0.1206
     43 H15         0.8725  -10.1177    1.1891 H         1 <0>         0.1205
     44 H16         2.6724   -6.4007    0.1296 H         1 <0>         0.1260
     45 H17         3.9339   -8.4715    0.0120 H         1 <0>         0.0916
     46 H18         3.1799  -10.0229    0.4512 H         1 <0>         0.0797
     47 H19         1.3438  -10.8364   -0.8885 H         1 <0>         0.3956
     48 H20         0.1877  -12.2968   -5.0911 H         1 <0>         0.0584
     49 H21        -0.8224  -11.2363   -6.1027 H         1 <0>         0.0625
     50 H22         0.5971  -10.5726   -5.2584 H         1 <0>         0.0913
     51 H23        -2.8628  -11.7435   -3.0306 H         1 <0>         0.0625
     52 H24        -2.8429  -11.9200   -4.8017 H         1 <0>         0.0746
     53 H25        -1.8328  -12.9805   -3.7902 H         1 <0>         0.0646
     54 H26        -0.8488   -8.8362   -4.1923 H         1 <0>         0.0896
     55 H27        -2.2683   -9.4999   -5.0365 H         1 <0>         0.0632
     56 H28        -2.2882   -9.3233   -3.2654 H         1 <0>         0.0547
@<TRIPOS>BOND
     1    1    2 1
     2    1   30 1
     3    1   31 1
     4    1   32 1
     5    2    3 1
     6    2   33 1
     7    2   34 1
     8    3    4 1
     9    3   35 1
    10    3   36 1
    11    4    9 ar
    12    4    5 ar
    13    5    6 ar
    14    5   37 1
    15    6    7 ar
    16    6   38 1
    17    7    8 ar
    18    7   10 1
    19    8    9 ar
    20    8   39 1
    21    9   40 1
    22   10   15 ar
    23   10   11 ar
    24   11   12 ar
    25   11   41 1
    26   12   13 ar
    27   12   42 1
    28   13   14 ar
    29   13   43 1
    30   14   15 ar
    31   14   16 1
    32   15   44 1
    33   16   17 1
    34   16   45 1
    35   16   46 1
    36   17   18 1
    37   17   19 1
    38   17   22 1
    39   19   20 2
    40   19   21 1
    41   22   23 am
    42   22   47 1
    43   23   24 2
    44   23   25 1
    45   25   26 1
    46   26   27 1
    47   26   28 1
    48   26   29 1
    49   27   48 1
    50   27   49 1
    51   27   50 1
    52   28   51 1
    53   28   52 1
    54   28   53 1
    55   29   54 1
    56   29   55 1
    57   29   56 1
@<TRIPOS>MOLECULE
ZINC39889136
   61    64     0     0     0
SMALL
USER_CHARGES

@<TRIPOS>ATOM
      1 C1         -0.0187    1.5258    0.0104 C.3       1 <0>        -0.1533
      2 C2          0.0021   -0.0041    0.0020 C.3       1 <0>        -0.1239
      3 C3          0.7182   -0.4975   -1.2568 C.3       1 <0>        -0.1145
      4 C4          0.7390   -2.0273   -1.2652 C.3       1 <0>        -0.1038
      5 C5          1.4551   -2.5207   -2.5240 C.3       1 <0>        -0.1045
      6 S1          1.4797   -4.3345   -2.5340 S.3       1 <0>        -0.0125
      7 C6          2.3261   -4.7412   -4.0249 C.2       1 <0>         0.4333
      8 N1          2.7611   -3.7569   -4.8025 N.2       1 <0>        -0.6869
      9 C7          3.4828   -3.9959   -5.8875 C.2       1 <0>         0.5170
     10 O1          3.8204   -3.0683   -6.5977 O.2       1 <0>        -0.4893
     11 C8          3.8895   -5.3885   -6.2527 C.3       1 <0>        -0.2133
     12 H1          4.9607   -5.4868   -6.0773 H         1 <0>         0.1154
     13 C9          3.6186   -5.6955   -7.7219 C.3       1 <0>         0.0640
     14 H2          2.5804   -5.4645   -7.9604 H         1 <0>         0.0589
     15 C10         3.8805   -7.1695   -7.9540 C.2       1 <0>        -0.3857
     16 C11         3.6142   -8.0847   -6.9318 C.2       1 <0>         0.2993
     17 C12         3.8361   -9.5618   -7.1569 C.3       1 <0>        -0.0722
     18 C13         3.6607   -9.8808   -8.6436 C.3       1 <0>        -0.0583
     19 C14         4.6361   -9.0158   -9.4483 C.3       1 <0>        -0.1232
     20 C15         4.3669   -7.5651   -9.1527 C.2       1 <0>         0.3442
     21 O2          4.6151   -6.6425  -10.1001 O.3       1 <0>        -0.5708
     22 C16         2.2250   -9.5680   -9.0701 C.3       1 <0>        -0.1455
     23 C17         3.9626  -11.3603   -8.8905 C.3       1 <0>        -0.1373
     24 N2          3.1933   -7.6813   -5.7476 N.2       1 <0>        -0.6043
     25 C18         3.1803   -6.4025   -5.3984 C.2       1 <0>         0.4869
     26 N3          2.5110   -6.0255   -4.3286 N.2       1 <0>        -0.6170
     27 C19         4.5348   -4.8725   -8.5905 C.ar      1 <0>         0.0280
     28 C20         5.9053   -5.0118   -8.4759 C.ar      1 <0>        -0.1046
     29 C21         6.7457   -4.2569   -9.2727 C.ar      1 <0>        -0.1160
     30 C22         6.2156   -3.3631  -10.1842 C.ar      1 <0>        -0.1145
     31 C23         4.8450   -3.2245  -10.2994 C.ar      1 <0>        -0.1128
     32 C24         4.0045   -3.9825   -9.5057 C.ar      1 <0>        -0.0922
     33 C25         7.1318   -2.5394  -11.0521 C.3       1 <0>        -0.1021
     34 H3          1.0039    1.9031    0.0027 H         1 <0>         0.0535
     35 H4         -0.5459    1.8868   -0.8726 H         1 <0>         0.0537
     36 H5         -0.5289    1.8773    0.9072 H         1 <0>         0.0517
     37 H6          0.5293   -0.3651    0.8851 H         1 <0>         0.0614
     38 H7         -1.0205   -0.3814    0.0098 H         1 <0>         0.0616
     39 H8          0.1910   -0.1364   -2.1398 H         1 <0>         0.0655
     40 H9          1.7408   -0.1202   -1.2645 H         1 <0>         0.0652
     41 H10         1.2661   -2.3884   -0.3821 H         1 <0>         0.0710
     42 H11        -0.2836   -2.4046   -1.2575 H         1 <0>         0.0715
     43 H12         0.9279   -2.1597   -3.4071 H         1 <0>         0.0939
     44 H13         2.4777   -2.1435   -2.5317 H         1 <0>         0.0926
     45 H14         4.8452   -9.8297   -6.8441 H         1 <0>         0.0893
     46 H15         3.1114  -10.1312   -6.5749 H         1 <0>         0.0912
     47 H16         5.6597   -9.2614   -9.1654 H         1 <0>         0.0855
     48 H17         4.4962   -9.2029  -10.5129 H         1 <0>         0.0826
     49 H18         2.0173   -8.5117   -8.8995 H         1 <0>         0.0633
     50 H19         2.1027   -9.7960  -10.1290 H         1 <0>         0.0538
     51 H20         1.5323  -10.1736   -8.4857 H         1 <0>         0.0555
     52 H21         3.2773  -11.9735   -8.3053 H         1 <0>         0.0580
     53 H22         3.8371  -11.5849   -9.9496 H         1 <0>         0.0571
     54 H23         4.9885  -11.5764   -8.5923 H         1 <0>         0.0560
     55 H24         6.3195   -5.7101   -7.7638 H         1 <0>         0.0980
     56 H25         7.8165   -4.3652   -9.1827 H         1 <0>         0.1037
     57 H26         4.4308   -2.5260  -11.0113 H         1 <0>         0.1049
     58 H27         2.9337   -3.8769   -9.5983 H         1 <0>         0.0998
     59 H28         7.3385   -3.0787  -11.9766 H         1 <0>         0.0590
     60 H29         6.6532   -1.5883  -11.2855 H         1 <0>         0.0565
     61 H30         8.0662   -2.3556  -10.5220 H         1 <0>         0.0558
@<TRIPOS>BOND
     1    1    2 1
     2    1   34 1
     3    1   35 1
     4    1   36 1
     5    2    3 1
     6    2   37 1
     7    2   38 1
     8    3    4 1
     9    3   39 1
    10    3   40 1
    11    4    5 1
    12    4   41 1
    13    4   42 1
    14    5    6 1
    15    5   43 1
    16    5   44 1
    17    6    7 1
    18    7   26 1
    19    7    8 2
    20    8    9 1
    21    9   10 2
    22    9   11 1
    23   11   12 1
    24   11   25 1
    25   11   13 1
    26   13   14 1
    27   13   15 1
    28   13   27 1
    29   15   20 2
    30   15   16 1
    31   16   17 1
    32   16   24 2
    33   17   18 1
    34   17   45 1
    35   17   46 1
    36   18   19 1
    37   18   22 1
    38   18   23 1
    39   19   20 1
    40   19   47 1
    41   19   48 1
    42   20   21 1
    43   22   49 1
    44   22   50 1
    45   22   51 1
    46   23   52 1
    47   23   53 1
    48   23   54 1
    49   24   25 1
    50   25   26 2
    51   27   32 ar
    52   27   28 ar
    53   28   29 ar
    54   28   55 1
    55   29   30 ar
    56   29   56 1
    57   30   31 ar
    58   30   33 1
    59   31   32 ar
    60   31   57 1
    61   32   58 1
    62   33   59 1
    63   33   60 1
    64   33   61 1
@<TRIPOS>MOLECULE
ZINC11801357
   48    51     0     0     0
SMALL
USER_CHARGES
(Z)-3-[4-(1-naphthylmethoxy)phenyl]-2-phenyl-prop-2-enoic acid
@<TRIPOS>ATOM
      1 C1        -13.9296    5.4382    0.5096 C.ar      1 <0>        -0.1359
      2 C2        -13.5844    4.2924   -0.1848 C.ar      1 <0>        -0.1241
      3 C3        -12.2853    3.8286   -0.1539 C.ar      1 <0>        -0.0824
      4 C4        -11.3191    4.5174    0.5794 C.ar      1 <0>        -0.0091
      5 C5        -11.6745    5.6690    1.2817 C.ar      1 <0>        -0.1191
      6 C6        -12.9758    6.1258    1.2387 C.ar      1 <0>        -0.1268
      7 C7         -9.9229    4.0246    0.6172 C.2       1 <0>        -0.1120
      8 C8         -8.9224    4.7700    0.0698 C.2       1 <0>        -0.0927
      9 C9         -7.5843    4.1926   -0.0959 C.ar      1 <0>        -0.0665
     10 C10        -7.4369    2.8881   -0.5856 C.ar      1 <0>         0.0246
     11 C11        -6.1788    2.3518   -0.7393 C.ar      1 <0>        -0.1651
     12 C12        -5.0553    3.1018   -0.4097 C.ar      1 <0>         0.1247
     13 C13        -5.1957    4.3950    0.0817 C.ar      1 <0>        -0.2281
     14 C14        -6.4485    4.9436    0.2346 C.ar      1 <0>        -0.0758
     15 O1         -3.8170    2.5675   -0.5629 O.3       1 <0>        -0.3147
     16 C15        -2.7059    3.3920   -0.2055 C.3       1 <0>         0.1036
     17 C16        -1.4234    2.6365   -0.4410 C.ar      1 <0>        -0.0778
     18 C17        -1.4573    1.3672   -0.9318 C.ar      1 <0>        -0.0921
     19 C18        -0.2823    0.6512   -1.1509 C.ar      1 <0>        -0.1107
     20 C19         0.9342    1.2044   -0.8918 C.ar      1 <0>        -0.1110
     21 C20         1.0094    2.5148   -0.3905 C.ar      1 <0>        -0.0516
     22 C21        -0.1862    3.2411   -0.1620 C.ar      1 <0>        -0.0416
     23 C22        -0.1110    4.5522    0.3387 C.ar      1 <0>        -0.1096
     24 C23         1.1052    5.1052    0.5977 C.ar      1 <0>        -0.1152
     25 C24         2.2809    4.3911    0.3730 C.ar      1 <0>        -0.1200
     26 C25         2.2469    3.1198   -0.1114 C.ar      1 <0>        -0.1045
     27 C26        -9.6170    2.7326    1.2448 C.2       1 <0>         0.4840
     28 O2         -8.4606    2.3890    1.3964 O.co2     1 <0>        -0.6111
     29 H1        -14.9478    5.7971    0.4827 H         1 <0>         0.1136
     30 H2        -14.3333    3.7602   -0.7525 H         1 <0>         0.1169
     31 H3        -12.0171    2.9339   -0.6961 H         1 <0>         0.1210
     32 H4        -10.9318    6.2041    1.8549 H         1 <0>         0.1164
     33 H5        -13.2513    7.0196    1.7788 H         1 <0>         0.1151
     34 H6         -9.1146    5.7859   -0.2423 H         1 <0>         0.1137
     35 H7         -8.3088    2.3048   -0.8423 H         1 <0>         0.1210
     36 H8         -6.0640    1.3465   -1.1170 H         1 <0>         0.1214
     37 H9         -4.3197    4.9713    0.3403 H         1 <0>         0.1161
     38 H10        -6.5562    5.9495    0.6129 H         1 <0>         0.1157
     39 H11        -2.7792    3.6641    0.8474 H         1 <0>         0.0755
     40 H12        -2.7127    4.2953   -0.8156 H         1 <0>         0.0745
     41 H13        -2.4094    0.9066   -1.1502 H         1 <0>         0.1370
     42 H14        -0.3373   -0.3562   -1.5362 H         1 <0>         0.1254
     43 H15         1.8369    0.6392   -1.0710 H         1 <0>         0.1264
     44 H16        -1.0136    5.1178    0.5170 H         1 <0>         0.1268
     45 H17         1.1602    6.1128    0.9827 H         1 <0>         0.1230
     46 H18         3.2332    4.8538    0.5862 H         1 <0>         0.1218
     47 H19         3.1662    2.5788   -0.2809 H         1 <0>         0.1262
     48 O3        -10.6187    1.9272    1.6529 O.co2     1 <0>        -0.7468
@<TRIPOS>BOND
     1    1    6 ar
     2    1    2 ar
     3    1   29 1
     4    2    3 ar
     5    2   30 1
     6    3    4 ar
     7    3   31 1
     8    4    5 ar
     9    4    7 1
    10    5    6 ar
    11    5   32 1
    12    6   33 1
    13    7    8 2
    14    7   27 1
    15    8    9 1
    16    8   34 1
    17    9   14 ar
    18    9   10 ar
    19   10   11 ar
    20   10   35 1
    21   11   12 ar
    22   11   36 1
    23   12   13 ar
    24   12   15 1
    25   13   14 ar
    26   13   37 1
    27   14   38 1
    28   15   16 1
    29   16   17 1
    30   16   39 1
    31   16   40 1
    32   17   22 ar
    33   17   18 ar
    34   18   19 ar
    35   18   41 1
    36   19   20 ar
    37   19   42 1
    38   20   21 ar
    39   20   43 1
    40   21   26 ar
    41   21   22 ar
    42   22   23 ar
    43   23   24 ar
    44   23   44 1
    45   24   25 ar
    46   24   45 1
    47   25   26 ar
    48   25   46 1
    49   26   47 1
    50   27   28 2
    51   27   48 1
@<TRIPOS>MOLECULE
ZINC06149620
   54    56     0     0     0
SMALL
USER_CHARGES
(5R)-5-(4-chlorophenyl)-1-hexyl-3-hydroxy-4-(4-methylbenzoyl)-5H-pyrrol-2-one
@<TRIPOS>ATOM
      1 C1         -4.5499   10.4414   -2.8690 C.3       1 <0>        -0.1542
      2 C2         -4.1686    9.7988   -1.5339 C.3       1 <0>        -0.1245
      3 C3         -3.8869    8.3101   -1.7464 C.3       1 <0>        -0.1198
      4 C4         -3.5056    7.6675   -0.4112 C.3       1 <0>        -0.1148
      5 C5         -3.2238    6.1788   -0.6238 C.3       1 <0>        -0.1456
      6 C6         -2.8426    5.5362    0.7114 C.3       1 <0>         0.1365
      7 N1         -2.5728    4.1107    0.5079 N.am      1 <0>        -0.6126
      8 C7         -1.2716    3.5163    0.1801 C.3       1 <0>         0.2637
      9 H1         -0.5365    3.7672    0.9590 H         1 <0>         0.0703
     10 C8         -1.5036    2.0272    0.0725 C.2       1 <0>        -0.5022
     11 C9         -2.8190    1.8184    0.3143 C.2       1 <0>         0.2647
     12 C10        -3.4740    3.1150    0.5884 C.2       1 <0>         0.5111
     13 O1         -4.6526    3.2604    0.8449 O.2       1 <0>        -0.5337
     14 O2         -3.4356    0.6143    0.3087 O.3       1 <0>        -0.6521
     15 C11        -0.4992    1.0062   -0.2398 C.2       1 <0>         0.5036
     16 O3         -0.5722    0.3791   -1.2798 O.2       1 <0>        -0.4739
     17 C12         0.6060    0.7426    0.7064 C.ar      1 <0>        -0.1413
     18 C13         0.7326    1.5079    1.8678 C.ar      1 <0>        -0.0628
     19 C14         1.7626    1.2528    2.7489 C.ar      1 <0>        -0.1391
     20 C15         2.6761    0.2489    2.4787 C.ar      1 <0>        -0.0764
     21 C16         2.5598   -0.5094    1.3269 C.ar      1 <0>        -0.1371
     22 C17         1.5313   -0.2688    0.4399 C.ar      1 <0>        -0.0713
     23 C18         3.8028   -0.0194    3.4428 C.3       1 <0>        -0.1151
     24 C19        -0.7702    4.0588   -1.1334 C.ar      1 <0>        -0.0676
     25 C20        -1.6208    4.1312   -2.2208 C.ar      1 <0>        -0.0702
     26 C21        -1.1631    4.6340   -3.4242 C.ar      1 <0>        -0.1137
     27 C22         0.1496    5.0542   -3.5436 C.ar      1 <0>        -0.0392
     28 C23         1.0019    4.9761   -2.4566 C.ar      1 <0>        -0.1136
     29 C24         0.5416    4.4785   -1.2521 C.ar      1 <0>        -0.1043
     30 Cl1         0.7273    5.6786   -5.0569 Cl        1 <0>        -0.0864
     31 H2         -4.7524   11.5117   -2.7162 H         1 <0>         0.0508
     32 H3         -5.4502    9.9512   -3.2680 H         1 <0>         0.0533
     33 H4         -3.7212   10.3233   -3.5827 H         1 <0>         0.0534
     34 H5         -3.2683   10.2890   -1.1349 H         1 <0>         0.0594
     35 H6         -4.9972    9.9169   -0.8202 H         1 <0>         0.0597
     36 H7         -4.7872    7.8199   -2.1454 H         1 <0>         0.0611
     37 H8         -3.0582    8.1919   -2.4601 H         1 <0>         0.0615
     38 H9         -2.6054    8.1578   -0.0122 H         1 <0>         0.0604
     39 H10        -4.3343    7.7856    0.3025 H         1 <0>         0.0611
     40 H11        -4.1240    5.6886   -1.0229 H         1 <0>         0.0654
     41 H12        -2.3951    6.0607   -1.3374 H         1 <0>         0.0738
     42 H13        -1.9424    6.0265    1.1105 H         1 <0>         0.0731
     43 H14        -3.6713    5.6543    1.4250 H         1 <0>         0.0778
     44 H15         0.0231    2.2945    2.0776 H         1 <0>         0.1332
     45 H16         1.8590    1.8407    3.6498 H         1 <0>         0.1208
     46 H17         3.2759   -1.2915    1.1222 H         1 <0>         0.1199
     47 H18         1.4419   -0.8611   -0.4587 H         1 <0>         0.1281
     48 H19         4.4212   -0.8461    3.0631 H         1 <0>         0.0628
     49 H20         3.3882   -0.2924    4.4244 H         1 <0>         0.0682
     50 H21         4.4214    0.8845    3.5446 H         1 <0>         0.0677
     51 H22        -2.6443    3.7991   -2.1287 H         1 <0>         0.1265
     52 H23        -1.8289    4.6946   -4.2724 H         1 <0>         0.1275
     53 H24         2.0269    5.3037   -2.5493 H         1 <0>         0.1275
     54 H25         1.2069    4.4172   -0.4036 H         1 <0>         0.1284
@<TRIPOS>BOND
     1    1    2 1
     2    1   31 1
     3    1   32 1
     4    1   33 1
     5    2    3 1
     6    2   34 1
     7    2   35 1
     8    3    4 1
     9    3   36 1
    10    3   37 1
    11    4    5 1
    12    4   38 1
    13    4   39 1
    14    5    6 1
    15    5   40 1
    16    5   41 1
    17    6    7 1
    18    6   42 1
    19    6   43 1
    20    7   12 am
    21    7    8 1
    22    8    9 1
    23    8   10 1
    24    8   24 1
    25   10   11 2
    26   10   15 1
    27   11   12 1
    28   11   14 1
    29   12   13 2
    30   15   16 2
    31   15   17 1
    32   17   22 ar
    33   17   18 ar
    34   18   19 ar
    35   18   44 1
    36   19   20 ar
    37   19   45 1
    38   20   21 ar
    39   20   23 1
    40   21   22 ar
    41   21   46 1
    42   22   47 1
    43   23   48 1
    44   23   49 1
    45   23   50 1
    46   24   29 ar
    47   24   25 ar
    48   25   26 ar
    49   25   51 1
    50   26   27 ar
    51   26   52 1
    52   27   28 ar
    53   27   30 1
    54   28   29 ar
    55   28   53 1
    56   29   54 1
@<TRIPOS>MOLECULE
ZINC39287695
   42    44     0     0     0
SMALL
USER_CHARGES

@<TRIPOS>ATOM
      1 C1         -0.0333    1.3422   -0.3700 C.ar      1 <0>        -0.1326
      2 C2          1.1502    2.0782   -0.3537 C.ar      1 <0>        -0.1080
      3 C3          2.3609    1.4574   -0.3258 C.ar      1 <0>        -0.1145
      4 C4          2.4223    0.0531   -0.3126 C.ar      1 <0>        -0.0121
      5 C5          3.6538   -0.6219   -0.2833 C.ar      1 <0>        -0.1591
      6 C6          3.6750   -1.9874   -0.2708 C.ar      1 <0>         0.1391
      7 C7          2.4861   -2.7236   -0.2874 C.ar      1 <0>        -0.1881
      8 C8          1.2781   -2.0999   -0.3162 C.ar      1 <0>        -0.0669
      9 C9          1.2187   -0.6953   -0.3288 C.ar      1 <0>        -0.0867
     10 C10        -0.0125   -0.0186   -0.3580 C.ar      1 <0>        -0.0935
     11 O1          4.8670   -2.6392   -0.2424 O.3       1 <0>        -0.3110
     12 C11         4.8252   -4.0675   -0.2306 C.3       1 <0>         0.0649
     13 C12         6.2519   -4.6192   -0.1987 C.3       1 <0>        -0.1302
     14 C13         6.2072   -6.1485   -0.1860 C.3       1 <0>         0.1244
     15 N1          7.5733   -6.6768   -0.1554 N.pl3     1 <0>        -0.7226
     16 C14         7.7868   -8.0479   -0.1393 C.ar      1 <0>         0.2566
     17 C15         6.7109   -8.9212   -0.0341 C.ar      1 <0>        -0.2189
     18 C16         6.9251  -10.2836   -0.0182 C.ar      1 <0>        -0.0625
     19 C17         8.2124  -10.7942   -0.1072 C.ar      1 <0>        -0.1140
     20 C18         9.2922   -9.9454   -0.2126 C.ar      1 <0>        -0.0241
     21 C19         9.0914   -8.5607   -0.2350 C.ar      1 <0>        -0.2080
     22 C20        10.2384   -7.6483   -0.3528 C.2       1 <0>         0.5341
     23 O2         11.3602   -8.0974   -0.5455 O.co2     1 <0>        -0.6786
     24 O3         10.0712   -6.4399   -0.2582 O.co2     1 <0>        -0.6867
     25 Cl1         8.4633  -12.5118   -0.0851 Cl        1 <0>        -0.1036
     26 H1         -0.9811    1.8596   -0.3880 H         1 <0>         0.1210
     27 H2          1.1058    3.1573   -0.3638 H         1 <0>         0.1220
     28 H3          3.2698    2.0406   -0.3142 H         1 <0>         0.1277
     29 H4          4.5786   -0.0642   -0.2710 H         1 <0>         0.1355
     30 H5          2.5280   -3.8027   -0.2774 H         1 <0>         0.1325
     31 H6          0.3679   -2.6812   -0.3294 H         1 <0>         0.1312
     32 H7         -0.9377   -0.5756   -0.3706 H         1 <0>         0.1252
     33 H8          4.2842   -4.4079    0.6523 H         1 <0>         0.0653
     34 H9          4.3179   -4.4236   -1.1273 H         1 <0>         0.0654
     35 H10         6.7929   -4.2789   -1.0816 H         1 <0>         0.0838
     36 H11         6.7592   -4.2632    0.6980 H         1 <0>         0.0832
     37 H12         5.6661   -6.4889    0.6969 H         1 <0>         0.0551
     38 H13         5.6999   -6.5046   -1.0827 H         1 <0>         0.0553
     39 H14         8.3285   -6.0682   -0.1465 H         1 <0>         0.4254
     40 H15         5.7057   -8.5325    0.0356 H         1 <0>         0.1200
     41 H16         6.0853  -10.9576    0.0644 H         1 <0>         0.1201
     42 H17        10.2920  -10.3480   -0.2811 H         1 <0>         0.1337
@<TRIPOS>BOND
     1    1   10 ar
     2    1    2 ar
     3    1   26 1
     4    2    3 ar
     5    2   27 1
     6    3    4 ar
     7    3   28 1
     8    4    9 ar
     9    4    5 ar
    10    5    6 ar
    11    5   29 1
    12    6    7 ar
    13    6   11 1
    14    7    8 ar
    15    7   30 1
    16    8    9 ar
    17    8   31 1
    18    9   10 ar
    19   10   32 1
    20   11   12 1
    21   12   13 1
    22   12   33 1
    23   12   34 1
    24   13   14 1
    25   13   35 1
    26   13   36 1
    27   14   15 1
    28   14   37 1
    29   14   38 1
    30   15   16 1
    31   15   39 1
    32   16   21 ar
    33   16   17 ar
    34   17   18 ar
    35   17   40 1
    36   18   19 ar
    37   18   41 1
    38   19   20 ar
    39   19   25 1
    40   20   21 ar
    41   20   42 1
    42   21   22 1
    43   22   23 2
    44   22   24 1
@<TRIPOS>MOLECULE
ZINC47162697
   45    48     0     0     0
SMALL
USER_CHARGES

@<TRIPOS>ATOM
      1 C1         -0.0167    1.3795    0.0096 C.ar      1 <0>        -0.1125
      2 C2          1.1683    2.0938    0.0021 C.ar      1 <0>        -0.1153
      3 C3          2.3774    1.4300   -0.0130 C.ar      1 <0>        -0.1003
      4 C4          2.4037    0.0340   -0.0208 C.ar      1 <0>        -0.0114
      5 C5          1.2041   -0.6806   -0.0131 C.ar      1 <0>        -0.0968
      6 C6          0.0021   -0.0041    0.0020 C.ar      1 <0>        -0.1152
      7 C7          3.6947   -0.6837   -0.0374 C.2       1 <0>        -0.0105
      8 C8          3.8707   -2.0325   -0.0520 C.2       1 <0>        -0.0103
      9 N1          5.1867   -2.2707   -0.0646 N.2       1 <0>        -0.4658
     10 C9          5.8261   -1.1232   -0.0585 C.2       1 <0>         0.2465
     11 O1          4.9252   -0.1249   -0.0471 O.3       1 <0>        -0.1862
     12 C10         7.2938   -0.9568   -0.0684 C.ar      1 <0>         0.0084
     13 C11         7.8547    0.3218   -0.0541 C.ar      1 <0>        -0.1117
     14 C12         9.2261    0.4700   -0.0636 C.ar      1 <0>        -0.0235
     15 C13        10.0455   -0.6447   -0.0872 C.ar      1 <0>        -0.5951
     16 C14         9.4963   -1.9147   -0.1015 C.ar      1 <0>        -0.0239
     17 C15         8.1266   -2.0774   -0.0864 C.ar      1 <0>        -0.0915
     18 S1         11.7962   -0.4462   -0.0997 S.o2      1 <0>         2.6067
     19 O2         12.3351   -1.6296   -0.6727 O.2       1 <0>        -1.0208
     20 O3         12.0547    0.8450   -0.6339 O.2       1 <0>        -1.0215
     21 N2         12.2967   -0.4142    1.4786 N.2       1 <0>        -1.0782
     22 C16        13.6527   -0.2653    1.7784 C.ar      1 <0>         0.3232
     23 C17        14.5824   -0.1381    0.7538 C.ar      1 <0>        -0.2613
     24 C18        15.9221    0.0095    1.0537 C.ar      1 <0>        -0.0401
     25 C19        16.3390    0.0302    2.3723 C.ar      1 <0>        -0.2286
     26 C20        15.4165   -0.0966    3.3944 C.ar      1 <0>        -0.0315
     27 C21        14.0741   -0.2383    3.1015 C.ar      1 <0>        -0.2599
     28 C22        13.0686   -0.3698    4.2163 C.3       1 <0>         0.5308
     29 F1         13.7286   -0.3144    5.4486 F         1 <0>        -0.2030
     30 F2         12.1433    0.6763    4.1354 F         1 <0>        -0.1792
     31 F3         12.4005   -1.5934    4.0998 F         1 <0>        -0.1790
     32 H1         -0.9605    1.9042    0.0260 H         1 <0>         0.1265
     33 H2          1.1465    3.1736    0.0078 H         1 <0>         0.1288
     34 H3          3.3016    1.9888   -0.0192 H         1 <0>         0.1291
     35 H4          1.2174   -1.7605   -0.0194 H         1 <0>         0.1303
     36 H5         -0.9265   -0.5555    0.0083 H         1 <0>         0.1304
     37 H6          3.0884   -2.7771   -0.0530 H         1 <0>         0.1899
     38 H7          7.2163    1.1927   -0.0361 H         1 <0>         0.1350
     39 H8          9.6613    1.4584   -0.0529 H         1 <0>         0.1465
     40 H9         10.1416   -2.7805   -0.1199 H         1 <0>         0.1483
     41 H10         7.6992   -3.0692   -0.0931 H         1 <0>         0.1438
     42 H11        14.2576   -0.1549   -0.2761 H         1 <0>         0.1064
     43 H12        16.6453    0.1085    0.2577 H         1 <0>         0.1108
     44 H13        17.3875    0.1454    2.6041 H         1 <0>         0.1124
     45 H14        15.7455   -0.0807    4.4229 H         1 <0>         0.1194
@<TRIPOS>BOND
     1    1    6 ar
     2    1    2 ar
     3    1   32 1
     4    2    3 ar
     5    2   33 1
     6    3    4 ar
     7    3   34 1
     8    4    5 ar
     9    4    7 1
    10    5    6 ar
    11    5   35 1
    12    6   36 1
    13    7   11 1
    14    7    8 2
    15    8    9 1
    16    8   37 1
    17    9   10 2
    18   10   11 1
    19   10   12 1
    20   12   17 ar
    21   12   13 ar
    22   13   14 ar
    23   13   38 1
    24   14   15 ar
    25   14   39 1
    26   15   16 ar
    27   15   18 1
    28   16   17 ar
    29   16   40 1
    30   17   41 1
    31   18   19 2
    32   18   20 2
    33   18   21 1
    34   21   22 1
    35   22   27 ar
    36   22   23 ar
    37   23   24 ar
    38   23   42 1
    39   24   25 ar
    40   24   43 1
    41   25   26 ar
    42   25   44 1
    43   26   27 ar
    44   26   45 1
    45   27   28 1
    46   28   29 1
    47   28   30 1
    48   28   31 1
@<TRIPOS>MOLECULE
ZINC02312508
   54    57     0     0     0
SMALL
USER_CHARGES

@<TRIPOS>ATOM
      1 C1         -0.0187    1.5258    0.0104 C.3       1 <0>        -0.1394
      2 C2          0.0021   -0.0041    0.0020 C.3       1 <0>        -0.1265
      3 S1          0.8794   -0.6050    1.4716 S.3       1 <0>        -0.0616
      4 C3          0.8178   -2.3591    1.3173 C.2       1 <0>         0.1677
      5 C4          1.3869   -3.1450    2.2703 C.2       1 <0>        -0.0970
      6 C5          1.3414   -4.6412    2.1683 C.3       1 <0>         0.0931
      7 H1          2.3104   -5.0487    2.4567 H         1 <0>         0.0961
      8 C6          1.0184   -5.0812    0.7627 C.2       1 <0>        -0.2639
      9 C7          0.4640   -4.2255   -0.1222 C.2       1 <0>         0.2175
     10 N1          0.1893   -2.9317    0.2359 N.pl3     1 <0>        -0.6388
     11 C8          0.1221   -4.6702   -1.5231 C.3       1 <0>        -0.0979
     12 C9          1.1064   -5.7519   -1.9733 C.3       1 <0>        -0.1100
     13 C10         1.0303   -6.9198   -0.9843 C.3       1 <0>        -0.1690
     14 C11         1.3128   -6.4074    0.4013 C.2       1 <0>         0.4030
     15 O1          1.8054   -7.1539    1.2239 O.2       1 <0>        -0.4628
     16 C12         0.2852   -5.1685    3.1050 C.ar      1 <0>        -0.1102
     17 C13        -1.0328   -4.7818    2.9469 C.ar      1 <0>        -0.0640
     18 C14        -2.0028   -5.2634    3.8045 C.ar      1 <0>        -0.1531
     19 C15        -1.6536   -6.1361    4.8249 C.ar      1 <0>         0.1301
     20 C16        -0.3305   -6.5229    4.9812 C.ar      1 <0>        -0.2076
     21 C17         0.6350   -6.0426    4.1177 C.ar      1 <0>        -0.0560
     22 O2         -2.6059   -6.6109    5.6701 O.3       1 <0>        -0.3095
     23 C18        -2.1740   -7.5055    6.6973 C.3       1 <0>         0.1018
     24 C19        -3.3584   -7.9239    7.5298 C.ar      1 <0>        -0.0973
     25 C20        -3.7193   -7.1831    8.6398 C.ar      1 <0>        -0.0953
     26 C21        -4.8058   -7.5669    9.4034 C.ar      1 <0>        -0.1231
     27 C22        -5.5317   -8.6912    9.0569 C.ar      1 <0>        -0.1095
     28 C23        -5.1713   -9.4314    7.9465 C.ar      1 <0>        -0.1232
     29 C24        -4.0874   -9.0452    7.1803 C.ar      1 <0>        -0.0953
     30 C25         2.0396   -2.5346    3.3893 C.1       1 <0>         0.2586
     31 N2          2.5573   -2.0504    4.2769 N.1       1 <0>        -0.4073
     32 H2          1.0039    1.9031    0.0027 H         1 <0>         0.0703
     33 H3         -0.5459    1.8868   -0.8726 H         1 <0>         0.0822
     34 H4         -0.5289    1.8773    0.9072 H         1 <0>         0.0706
     35 H5         -1.0205   -0.3814    0.0098 H         1 <0>         0.0921
     36 H6          0.5123   -0.3556   -0.8948 H         1 <0>         0.0943
     37 H7         -0.4499   -2.4141   -0.2782 H         1 <0>         0.4172
     38 H8         -0.8910   -5.0720   -1.5392 H         1 <0>         0.1017
     39 H9          0.1849   -3.8180   -2.1998 H         1 <0>         0.0905
     40 H10         0.8381   -6.0989   -2.9711 H         1 <0>         0.0881
     41 H11         2.1178   -5.3457   -1.9832 H         1 <0>         0.0763
     42 H12         0.0332   -7.3590   -1.0145 H         1 <0>         0.1013
     43 H13         1.7706   -7.6736   -1.2525 H         1 <0>         0.0983
     44 H14        -1.3041   -4.1024    2.1524 H         1 <0>         0.1186
     45 H15        -3.0321   -4.9605    3.6810 H         1 <0>         0.1279
     46 H16        -0.0561   -7.2021    5.7747 H         1 <0>         0.1273
     47 H17         1.6644   -6.3468    4.2362 H         1 <0>         0.1258
     48 H18        -1.7190   -8.3863    6.2443 H         1 <0>         0.0720
     49 H19        -1.4428   -7.0044    7.3317 H         1 <0>         0.0715
     50 H20        -3.1522   -6.3048    8.9105 H         1 <0>         0.1241
     51 H21        -5.0873   -6.9886   10.2710 H         1 <0>         0.1257
     52 H22        -6.3801   -8.9914    9.6540 H         1 <0>         0.1247
     53 H23        -5.7382  -10.3099    7.6759 H         1 <0>         0.1257
     54 H24        -3.8082   -9.6214    6.3106 H         1 <0>         0.1242
@<TRIPOS>BOND
     1    1    2 1
     2    1   32 1
     3    1   33 1
     4    1   34 1
     5    2    3 1
     6    2   35 1
     7    2   36 1
     8    3    4 1
     9    4   10 1
    10    4    5 2
    11    5    6 1
    12    5   30 1
    13    6    7 1
    14    6    8 1
    15    6   16 1
    16    8   14 1
    17    8    9 2
    18    9   10 1
    19    9   11 1
    20   10   37 1
    21   11   12 1
    22   11   38 1
    23   11   39 1
    24   12   13 1
    25   12   40 1
    26   12   41 1
    27   13   14 1
    28   13   42 1
    29   13   43 1
    30   14   15 2
    31   16   21 ar
    32   16   17 ar
    33   17   18 ar
    34   17   44 1
    35   18   19 ar
    36   18   45 1
    37   19   20 ar
    38   19   22 1
    39   20   21 ar
    40   20   46 1
    41   21   47 1
    42   22   23 1
    43   23   24 1
    44   23   48 1
    45   23   49 1
    46   24   29 ar
    47   24   25 ar
    48   25   26 ar
    49   25   50 1
    50   26   27 ar
    51   26   51 1
    52   27   28 ar
    53   27   52 1
    54   28   29 ar
    55   28   53 1
    56   29   54 1
    57   30   31 3
@<TRIPOS>MOLECULE
ZINC13255856
   50    54     0     0     0
SMALL
USER_CHARGES
3-[[3-[4-(difluoromethoxy)phenyl]-4-oxo-quinazolin-2-yl]sulfanylmethyl]benzofuran-2-carboxylic acid
@<TRIPOS>ATOM
      1 C1         -3.2317   -6.8017   -0.7497 C.ar      1 <0>        -0.1513
      2 C2         -3.5906   -5.8928   -1.7369 C.ar      1 <0>        -0.0690
      3 C3         -3.8163   -4.5795   -1.4352 C.ar      1 <0>        -0.1156
      4 C4         -3.6859   -4.1407   -0.1141 C.ar      1 <0>         0.1827
      5 C5         -3.3205   -5.0687    0.8879 C.ar      1 <0>        -0.2100
      6 C6         -3.0958   -6.4030    0.5513 C.ar      1 <0>        -0.0357
      7 C7         -3.1897   -4.5841    2.2683 C.2       1 <0>         0.5572
      8 O1         -2.8782   -5.3352    3.1744 O.2       1 <0>        -0.5037
      9 N1         -3.4288   -3.2715    2.4953 N.am      1 <0>        -0.4863
     10 C8         -3.7781   -2.4428    1.4652 C.2       1 <0>         0.3784
     11 N2         -3.9054   -2.8554    0.2282 N.2       1 <0>        -0.5291
     12 S1         -4.0778   -0.7429    1.8190 S.3       1 <0>         0.0262
     13 C9         -4.4847   -0.1436    0.1602 C.3       1 <0>        -0.0154
     14 C10        -4.7867    1.3317    0.2191 C.2       1 <0>        -0.1796
     15 C11        -6.0906    1.9539    0.4440 C.ar      1 <0>        -0.1139
     16 C12        -7.3802    1.4616    0.6604 C.ar      1 <0>        -0.0717
     17 C13        -8.4162    2.3335    0.8413 C.ar      1 <0>        -0.1405
     18 C14        -8.1958    3.7040    0.8113 C.ar      1 <0>        -0.1049
     19 C15        -6.9317    4.2097    0.5993 C.ar      1 <0>        -0.1033
     20 C16        -5.8614    3.3422    0.4127 C.ar      1 <0>         0.0432
     21 O2         -4.5457    3.5333    0.1957 O.3       1 <0>        -0.1639
     22 C17        -3.9022    2.3532    0.0745 C.2       1 <0>         0.0708
     23 C18        -2.4632    2.1967   -0.1704 C.2       1 <0>         0.5193
     24 O3         -1.9789    1.0850   -0.2583 O.co2     1 <0>        -0.5827
     25 C19        -3.3173   -2.7579    3.7953 C.ar      1 <0>         0.0765
     26 C20        -2.1008   -2.2609    4.2436 C.ar      1 <0>        -0.0446
     27 C21        -1.9929   -1.7504    5.5220 C.ar      1 <0>        -0.1786
     28 C22        -3.0971   -1.7436    6.3620 C.ar      1 <0>         0.1235
     29 C23        -4.3114   -2.2453    5.9165 C.ar      1 <0>        -0.1255
     30 C24        -4.4218   -2.7513    4.6366 C.ar      1 <0>        -0.0541
     31 O4         -2.9889   -1.2456    7.6224 O.3       1 <0>        -0.3181
     32 C25        -1.7091   -0.7455    8.0147 C.3       1 <0>         0.4100
     33 F1         -0.7623   -1.7723    7.9338 F         1 <0>        -0.1977
     34 F2         -1.3363    0.3006    7.1639 F         1 <0>        -0.1929
     35 H1         -3.0584   -7.8348   -1.0125 H         1 <0>         0.1293
     36 H2         -3.6923   -6.2292   -2.7582 H         1 <0>         0.1314
     37 H3         -4.0940   -3.8839   -2.2132 H         1 <0>         0.1397
     38 H4         -2.8160   -7.1163    1.3125 H         1 <0>         0.1340
     39 H5         -5.3571   -0.6783   -0.2154 H         1 <0>         0.0989
     40 H6         -3.6390   -0.3150   -0.5057 H         1 <0>         0.1334
     41 H7         -7.5571    0.3965    0.6850 H         1 <0>         0.1232
     42 H8         -9.4135    1.9542    1.0086 H         1 <0>         0.1242
     43 H9         -9.0246    4.3813    0.9555 H         1 <0>         0.1297
     44 H10        -6.7727    5.2778    0.5778 H         1 <0>         0.1300
     45 H11        -1.2402   -2.2699    3.5912 H         1 <0>         0.1370
     46 H12        -1.0478   -1.3600    5.8694 H         1 <0>         0.1435
     47 H13        -5.1704   -2.2405    6.5711 H         1 <0>         0.1451
     48 H14        -5.3671   -3.1421    4.2900 H         1 <0>         0.1383
     49 H15        -1.7609   -0.3791    9.0400 H         1 <0>         0.1835
     50 O5         -1.6794    3.2861   -0.3033 O.co2     1 <0>        -0.7213
@<TRIPOS>BOND
     1    1    6 ar
     2    1    2 ar
     3    1   35 1
     4    2    3 ar
     5    2   36 1
     6    3    4 ar
     7    3   37 1
     8    4   11 1
     9    4    5 ar
    10    5    6 ar
    11    5    7 1
    12    6   38 1
    13    7    8 2
    14    7    9 am
    15    9   10 1
    16    9   25 1
    17   10   11 2
    18   10   12 1
    19   12   13 1
    20   13   14 1
    21   13   39 1
    22   13   40 1
    23   14   22 2
    24   14   15 1
    25   15   20 ar
    26   15   16 ar
    27   16   17 ar
    28   16   41 1
    29   17   18 ar
    30   17   42 1
    31   18   19 ar
    32   18   43 1
    33   19   20 ar
    34   19   44 1
    35   20   21 1
    36   21   22 1
    37   22   23 1
    38   23   24 2
    39   23   50 1
    40   25   30 ar
    41   25   26 ar
    42   26   27 ar
    43   26   45 1
    44   27   28 ar
    45   27   46 1
    46   28   29 ar
    47   28   31 1
    48   29   30 ar
    49   29   47 1
    50   30   48 1
    51   31   32 1
    52   32   33 1
    53   32   34 1
    54   32   49 1
@<TRIPOS>MOLECULE
ZINC34919829
   52    56     0     0     0
SMALL
USER_CHARGES

@<TRIPOS>ATOM
      1 C1         -4.7546   -1.4536   -1.5459 C.3       1 <0>        -0.1139
      2 C2         -3.4973   -2.1822   -1.1467 C.ar      1 <0>        -0.0738
      3 C3         -2.3937   -2.1597   -1.9815 C.ar      1 <0>        -0.1372
      4 C4         -1.2396   -2.8240   -1.6222 C.ar      1 <0>        -0.0686
      5 C5         -1.1863   -3.5204   -0.4128 C.ar      1 <0>        -0.1435
      6 C6         -2.3036   -3.5389    0.4248 C.ar      1 <0>        -0.0617
      7 C7         -3.4496   -2.8660    0.0555 C.ar      1 <0>        -0.1375
      8 C8          0.0474   -4.2352   -0.0212 C.2       1 <0>         0.5066
      9 C9          0.1273   -4.8983    1.2833 C.2       1 <0>        -0.4817
     10 C10         0.1061   -4.2287    2.6376 C.3       1 <0>         0.2707
     11 H1         -0.8291   -3.6853    2.7723 H         1 <0>         0.0881
     12 N1          0.2108   -5.3064    3.6283 N.am      1 <0>        -0.5044
     13 C11         0.2856   -6.4737    2.9637 C.2       1 <0>         0.5125
     14 O1          0.3812   -7.5674    3.4843 O.2       1 <0>        -0.4829
     15 C12         0.2286   -6.2300    1.5078 C.2       1 <0>         0.2691
     16 O2          0.2731   -7.1852    0.5507 O.3       1 <0>        -0.6342
     17 C13         0.2294   -5.1495    5.0030 C.2       1 <0>         0.4211
     18 N2          0.1543   -4.0437    5.7067 N.2       1 <0>        -0.5489
     19 C14         0.1845   -4.0390    7.0569 C.ar      1 <0>         0.1302
     20 C15         0.1131   -2.9270    7.9279 C.ar      1 <0>        -0.0656
     21 C16         0.1587   -3.0975    9.2866 C.ar      1 <0>        -0.0953
     22 C17         0.2758   -4.3586    9.8559 C.ar      1 <0>        -0.0397
     23 C18         0.3477   -5.4689    9.0334 C.ar      1 <0>        -0.0400
     24 C19         0.3026   -5.3068    7.6711 C.ar      1 <0>        -0.1765
     25 S1          0.3537   -6.4014    6.2725 S.3       1 <0>         0.0633
     26 Cl1         0.3320   -4.5402   11.5815 Cl        1 <0>        -0.0641
     27 C20         1.2763   -3.2883    2.7691 C.ar      1 <0>        -0.1022
     28 C21         2.5504   -3.7934    2.9519 C.ar      1 <0>        -0.0534
     29 C22         3.6247   -2.9334    3.0732 C.ar      1 <0>        -0.1483
     30 C23         3.4244   -1.5621    3.0109 C.ar      1 <0>         0.1202
     31 C24         2.1451   -1.0578    2.8270 C.ar      1 <0>        -0.2054
     32 C25         1.0748   -1.9221    2.7011 C.ar      1 <0>        -0.0601
     33 O3          4.4796   -0.7140    3.1304 O.3       1 <0>        -0.3209
     34 C26         4.1990    0.6852    3.0567 C.3       1 <0>         0.0294
     35 O4          0.9962   -4.2729   -0.7819 O.2       1 <0>        -0.4648
     36 H2         -4.7151   -0.4300   -1.1735 H         1 <0>         0.0689
     37 H3         -4.8383   -1.4419   -2.6326 H         1 <0>         0.0645
     38 H4         -5.6198   -1.9620   -1.1203 H         1 <0>         0.0652
     39 H5         -2.4364   -1.6211   -2.9166 H         1 <0>         0.1209
     40 H6         -0.3792   -2.8060   -2.2747 H         1 <0>         0.1293
     41 H7         -2.2691   -4.0756    1.3614 H         1 <0>         0.1316
     42 H8         -4.3130   -2.8761    0.7042 H         1 <0>         0.1219
     43 H9          0.0220   -1.9322    7.5173 H         1 <0>         0.1394
     44 H10         0.1027   -2.2314    9.9293 H         1 <0>         0.1393
     45 H11         0.4393   -6.4567    9.4605 H         1 <0>         0.1394
     46 H12         2.7057   -4.8610    3.0003 H         1 <0>         0.1182
     47 H13         4.6196   -3.3284    3.2167 H         1 <0>         0.1259
     48 H14         1.9867    0.0094    2.7782 H         1 <0>         0.1243
     49 H15         0.0793   -1.5302    2.5534 H         1 <0>         0.1229
     50 H16         3.5103    0.9602    3.8556 H         1 <0>         0.0528
     51 H17         5.1260    1.2480    3.1664 H         1 <0>         0.0951
     52 H18         3.7466    0.9147    2.0920 H         1 <0>         0.0537
@<TRIPOS>BOND
     1    1    2 1
     2    1   36 1
     3    1   37 1
     4    1   38 1
     5    2    7 ar
     6    2    3 ar
     7    3    4 ar
     8    3   39 1
     9    4    5 ar
    10    4   40 1
    11    5    6 ar
    12    5    8 1
    13    6    7 ar
    14    6   41 1
    15    7   42 1
    16    8    9 1
    17    8   35 2
    18    9   15 2
    19    9   10 1
    20   10   12 1
    21   10   27 1
    22   10   11 1
    23   12   17 1
    24   12   13 am
    25   13   14 2
    26   13   15 1
    27   15   16 1
    28   17   25 1
    29   17   18 2
    30   18   19 1
    31   19   24 ar
    32   19   20 ar
    33   20   21 ar
    34   20   43 1
    35   21   22 ar
    36   21   44 1
    37   22   23 ar
    38   22   26 1
    39   23   24 ar
    40   23   45 1
    41   24   25 1
    42   27   32 ar
    43   27   28 ar
    44   28   29 ar
    45   28   46 1
    46   29   30 ar
    47   29   47 1
    48   30   31 ar
    49   30   33 1
    50   31   32 ar
    51   31   48 1
    52   32   49 1
    53   33   34 1
    54   34   50 1
    55   34   51 1
    56   34   52 1
@<TRIPOS>MOLECULE
ZINC39997845
   68    71     0     0     0
SMALL
USER_CHARGES

@<TRIPOS>ATOM
      1 C1          0.1936    1.3716   -1.3036 C.3       1 <0>        -0.1522
      2 C2          0.2480   -0.1532   -1.1896 C.3       1 <0>        -0.1202
      3 C3          0.4590   -0.5480    0.2735 C.3       1 <0>        -0.0239
      4 C4          0.5126   -2.0499    0.3858 C.2       1 <0>         0.0599
      5 N1          1.5452   -2.8677    0.3171 N.2       1 <0>        -0.2691
      6 N2          1.4222   -4.1176    0.4330 N.2       1 <0>        -0.2970
      7 C5          0.2337   -4.6871    0.6327 C.2       1 <0>         0.2484
      8 S1         -0.8062   -3.2297    0.6582 S.3       1 <0>        -0.0001
      9 N3         -0.0940   -5.9973    0.7793 N.2       1 <0>        -0.4555
     10 C6          0.8433   -6.9192    0.7310 C.2       1 <0>         0.4636
     11 C7          0.4890   -8.3355    0.8895 C.2       1 <0>        -0.1087
     12 C8          1.4723   -9.3027    0.8388 C.2       1 <0>         0.1044
     13 C9          1.1452  -10.6943    1.1444 C.2       1 <0>        -0.2468
     14 C10         0.0169  -11.1583    1.8020 C.2       1 <0>         0.1141
     15 N4          0.1068  -12.4977    1.8754 N.pl3     1 <0>        -0.2954
     16 N5          1.2909  -12.9253    1.2689 N.2       1 <0>        -0.2718
     17 C11         1.9438  -11.8816    0.8101 C.2       1 <0>         0.1813
     18 C12         3.2414  -11.8983    0.0952 C.ar      1 <0>        -0.0715
     19 C13         3.4945  -10.9711   -0.9156 C.ar      1 <0>        -0.0551
     20 C14         4.7031  -10.9894   -1.5789 C.ar      1 <0>        -0.1496
     21 C15         5.6678  -11.9295   -1.2416 C.ar      1 <0>         0.1530
     22 C16         5.4189  -12.8542   -0.2361 C.ar      1 <0>        -0.2087
     23 C17         4.2149  -12.8375    0.4354 C.ar      1 <0>        -0.0372
     24 O1          6.8577  -11.9448   -1.8972 O.3       1 <0>        -0.3105
     25 C18         7.8046  -12.9384   -1.4997 C.3       1 <0>         0.0551
     26 C19         9.0734  -12.8002   -2.3435 C.3       1 <0>        -0.1156
     27 C20        10.0873  -13.8641   -1.9180 C.3       1 <0>        -0.0937
     28 C21        11.3048  -13.8072   -2.8429 C.3       1 <0>        -0.1483
     29 C22        10.5288  -13.6004   -0.4770 C.3       1 <0>        -0.1544
     30 C23        -0.8429  -13.3377    2.4705 C.ar      1 <0>         0.1366
     31 C24        -1.9890  -12.7987    3.0401 C.ar      1 <0>        -0.1319
     32 C25        -2.9235  -13.6297    3.6262 C.ar      1 <0>        -0.0910
     33 C26        -2.7189  -14.9972    3.6462 C.ar      1 <0>        -0.1168
     34 C27        -1.5787  -15.5371    3.0799 C.ar      1 <0>        -0.0966
     35 C28        -0.6431  -14.7119    2.4872 C.ar      1 <0>        -0.1081
     36 C29        -0.8767   -8.7132    1.0965 C.1       1 <0>         0.2710
     37 N6         -1.9601   -9.0127    1.2608 N.1       1 <0>        -0.4013
     38 O2          2.1332   -6.5625    0.5354 O.3       1 <0>        -0.4488
     39 H1          1.1308    1.7965   -0.9442 H         1 <0>         0.0593
     40 H2          0.0433    1.6528   -2.3460 H         1 <0>         0.0604
     41 H3         -0.6321    1.7517   -0.7021 H         1 <0>         0.0577
     42 H4         -0.6892   -0.5781   -1.5491 H         1 <0>         0.0665
     43 H5          1.0737   -0.5333   -1.7912 H         1 <0>         0.0714
     44 H6          1.3962   -0.1231    0.6329 H         1 <0>         0.1054
     45 H7         -0.3667   -0.1679    0.8750 H         1 <0>         0.0948
     46 H8          2.4834   -9.0313    0.5734 H         1 <0>         0.1607
     47 H9         -0.7901  -10.5523    2.1866 H         1 <0>         0.1915
     48 H10         2.7445  -10.2399   -1.1787 H         1 <0>         0.1354
     49 H11         4.8995  -10.2721   -2.3619 H         1 <0>         0.1412
     50 H12         6.1711  -13.5845    0.0233 H         1 <0>         0.1345
     51 H13         4.0238  -13.5540    1.2207 H         1 <0>         0.1323
     52 H14         8.0521  -12.8039   -0.4468 H         1 <0>         0.0679
     53 H15         7.3756  -13.9293   -1.6484 H         1 <0>         0.0642
     54 H16         8.8260  -12.9347   -3.3965 H         1 <0>         0.0754
     55 H17         9.5025  -11.8093   -2.1948 H         1 <0>         0.0762
     56 H18         9.6278  -14.8504   -1.9824 H         1 <0>         0.0728
     57 H19        11.7643  -12.8209   -2.7784 H         1 <0>         0.0573
     58 H20        12.0271  -14.5651   -2.5397 H         1 <0>         0.0584
     59 H21        10.9903  -13.9951   -3.8694 H         1 <0>         0.0568
     60 H22        10.9884  -12.6141   -0.4125 H         1 <0>         0.0582
     61 H23         9.6615  -13.6409    0.1820 H         1 <0>         0.0547
     62 H24        11.2511  -14.3583   -0.1738 H         1 <0>         0.0582
     63 H25        -2.1492  -11.7307    3.0251 H         1 <0>         0.1305
     64 H26        -3.8148  -13.2111    4.0697 H         1 <0>         0.1378
     65 H27        -3.4510  -15.6449    4.1054 H         1 <0>         0.1336
     66 H28        -1.4217  -16.6055    3.0971 H         1 <0>         0.1366
     67 H29         0.2449  -15.1345    2.0408 H         1 <0>         0.1409
     68 H30         2.7486   -7.3081    0.5149 H         1 <0>         0.4018
@<TRIPOS>BOND
     1    1    2 1
     2    1   39 1
     3    1   40 1
     4    1   41 1
     5    2    3 1
     6    2   42 1
     7    2   43 1
     8    3    4 1
     9    3   44 1
    10    3   45 1
    11    4    8 1
    12    4    5 2
    13    5    6 1
    14    6    7 2
    15    7    8 1
    16    7    9 1
    17    9   10 2
    18   10   11 1
    19   10   38 1
    20   11   12 2
    21   11   36 1
    22   12   13 1
    23   12   46 1
    24   13   17 1
    25   13   14 2
    26   14   15 1
    27   14   47 1
    28   15   16 1
    29   15   30 1
    30   16   17 2
    31   17   18 1
    32   18   23 ar
    33   18   19 ar
    34   19   20 ar
    35   19   48 1
    36   20   21 ar
    37   20   49 1
    38   21   22 ar
    39   21   24 1
    40   22   23 ar
    41   22   50 1
    42   23   51 1
    43   24   25 1
    44   25   26 1
    45   25   52 1
    46   25   53 1
    47   26   27 1
    48   26   54 1
    49   26   55 1
    50   27   28 1
    51   27   29 1
    52   27   56 1
    53   28   57 1
    54   28   58 1
    55   28   59 1
    56   29   60 1
    57   29   61 1
    58   29   62 1
    59   30   35 ar
    60   30   31 ar
    61   31   32 ar
    62   31   63 1
    63   32   33 ar
    64   32   64 1
    65   33   34 ar
    66   33   65 1
    67   34   35 ar
    68   34   66 1
    69   35   67 1
    70   36   37 3
    71   38   68 1
@<TRIPOS>MOLECULE
ZINC20522800
   43    46     0     0     0
SMALL
USER_CHARGES

@<TRIPOS>ATOM
      1 C1         -0.3028    1.1374    0.9807 C.ar      1 <0>        -0.1131
      2 C2          0.1038    0.2403    0.0107 C.ar      1 <0>        -0.1247
      3 C3          1.1787   -0.5954    0.2493 C.ar      1 <0>        -0.0958
      4 C4          1.8474   -0.5336    1.4576 C.ar      1 <0>        -0.0921
      5 C5          1.4414    0.3641    2.4271 C.ar      1 <0>        -0.0949
      6 C6          0.3655    1.1988    2.1891 C.ar      1 <0>        -0.1241
      7 C7          3.0187   -1.4454    1.7180 C.3       1 <0>         0.1001
      8 O1          4.2237   -0.8067    1.2910 O.3       1 <0>        -0.3095
      9 C8          5.3794   -1.4982    1.4562 C.ar      1 <0>         0.1408
     10 C9          5.3516   -2.7713    2.0144 C.ar      1 <0>        -0.2156
     11 C10         6.5218   -3.4764    2.1839 C.ar      1 <0>         0.0225
     12 C11         7.7394   -2.9104    1.7937 C.ar      1 <0>        -0.1343
     13 C12         7.7627   -1.6298    1.2328 C.ar      1 <0>        -0.0440
     14 C13         6.5872   -0.9340    1.0617 C.ar      1 <0>        -0.1605
     15 C14         8.9951   -3.6615    1.9737 C.2       1 <0>         0.5307
     16 O2          9.5702   -4.1238    1.0083 O.2       1 <0>        -0.3791
     17 N1          9.5051   -3.8355    3.2090 N.am      1 <0>        -0.4858
     18 C15         8.7834   -3.4438    4.2981 C.2       1 <0>         0.5130
     19 O3          7.5684   -2.8862    4.1571 O.3       1 <0>        -0.5586
     20 C16         9.3449   -3.6398    5.5729 C.ar      1 <0>        -0.2515
     21 C17         8.6689   -3.2657    6.7437 C.ar      1 <0>         0.0394
     22 C18         9.2570   -3.4776    7.9560 C.ar      1 <0>        -0.1726
     23 C19        10.5194   -4.0598    8.0467 C.ar      1 <0>        -0.0243
     24 C20        11.2040   -4.4347    6.9286 C.ar      1 <0>        -0.1402
     25 C21        10.6324   -4.2341    5.6646 C.ar      1 <0>         0.2447
     26 N2         11.2714   -4.5897    4.5410 N.2       1 <0>        -0.5531
     27 C22        10.7167   -4.3980    3.3546 C.2       1 <0>         0.4794
     28 S1         11.5768   -4.8783    1.9545 S.2       1 <0>        -0.6049
     29 I1          8.2484   -2.9194    9.7053 I         1 <0>        -0.0607
     30 H1         -1.1399    1.7935    0.7926 H         1 <0>         0.1224
     31 H2         -0.4187    0.1921   -0.9333 H         1 <0>         0.1240
     32 H3          1.4960   -1.2968   -0.5082 H         1 <0>         0.1246
     33 H4          1.9636    0.4121    3.3713 H         1 <0>         0.1254
     34 H5          0.0481    1.8999    2.9468 H         1 <0>         0.1243
     35 H6          3.0805   -1.6619    2.7845 H         1 <0>         0.0725
     36 H7          2.8851   -2.3754    1.1655 H         1 <0>         0.0711
     37 H8          4.4107   -3.2075    2.3158 H         1 <0>         0.1254
     38 H9          6.4993   -4.4651    2.6178 H         1 <0>         0.1161
     39 H10         8.7010   -1.1889    0.9301 H         1 <0>         0.1272
     40 H11         6.6038    0.0534    0.6245 H         1 <0>         0.1296
     41 H12         7.6902   -2.8130    6.6856 H         1 <0>         0.1367
     42 H13        10.9633   -4.2165    9.0187 H         1 <0>         0.1287
     43 H14        12.1819   -4.8847    7.0166 H         1 <0>         0.1407
@<TRIPOS>BOND
     1    1    6 ar
     2    1    2 ar
     3    1   30 1
     4    2    3 ar
     5    2   31 1
     6    3    4 ar
     7    3   32 1
     8    4    5 ar
     9    4    7 1
    10    5    6 ar
    11    5   33 1
    12    6   34 1
    13    7    8 1
    14    7   35 1
    15    7   36 1
    16    8    9 1
    17    9   14 ar
    18    9   10 ar
    19   10   11 ar
    20   10   37 1
    21   11   12 ar
    22   11   38 1
    23   12   13 ar
    24   12   15 1
    25   13   14 ar
    26   13   39 1
    27   14   40 1
    28   15   16 2
    29   15   17 am
    30   17   27 1
    31   17   18 1
    32   18   19 1
    33   18   20 2
    34   20   25 ar
    35   20   21 ar
    36   21   22 ar
    37   21   41 1
    38   22   23 ar
    39   22   29 1
    40   23   24 ar
    41   23   42 1
    42   24   25 ar
    43   24   43 1
    44   25   26 2
    45   26   27 1
    46   27   28 2
@<TRIPOS>MOLECULE
ZINC39766305
   63    67     0     0     0
SMALL
USER_CHARGES

@<TRIPOS>ATOM
      1 C1         -0.0184    1.5028    0.0103 C.3       1 <0>        -0.1141
      2 C2          0.0021   -0.0041    0.0020 C.ar      1 <0>        -0.0856
      3 C3          0.0057   -0.6887   -1.1989 C.ar      1 <0>        -0.1214
      4 C4          0.0245   -2.0709   -1.2065 C.ar      1 <0>        -0.0953
      5 C5          0.0400   -2.7685   -0.0132 C.ar      1 <0>        -0.0755
      6 C6          0.0373   -2.0839    1.1877 C.ar      1 <0>        -0.0960
      7 C7          0.0229   -0.7016    1.1953 C.ar      1 <0>        -0.1216
      8 C8          0.0595   -4.2753   -0.0215 C.3       1 <0>        -0.0669
      9 S1          1.7773   -4.8578   -0.0342 S.3       1 <0>         0.0038
     10 C9          1.6320   -6.6138   -0.0429 C.2       1 <0>         0.4321
     11 N1          0.4198   -7.1553   -0.0446 N.2       1 <0>        -0.6835
     12 C10         0.2442   -8.4656    0.0409 C.2       1 <0>         0.5260
     13 O1         -0.8810   -8.9234   -0.0140 O.2       1 <0>        -0.5003
     14 C11         1.4082   -9.3911    0.2035 C.3       1 <0>        -0.2162
     15 H1          1.3907   -9.7833    1.2203 H         1 <0>         0.1168
     16 C12         1.3394  -10.5703   -0.7612 C.3       1 <0>         0.0647
     17 H2          0.5037  -11.2167   -0.4931 H         1 <0>         0.1032
     18 C13         2.6381  -11.3433   -0.6557 C.2       1 <0>        -0.3828
     19 C14         3.8264  -10.6572   -0.3895 C.2       1 <0>         0.3056
     20 C15         5.1346  -11.4096   -0.3218 C.3       1 <0>        -0.0735
     21 C16         4.8716  -12.8271    0.1938 C.3       1 <0>        -0.0571
     22 C17         3.8695  -13.5117   -0.7399 C.3       1 <0>        -0.1240
     23 C18         2.6156  -12.6852   -0.8211 C.2       1 <0>         0.3506
     24 O2          1.4418  -13.2965   -1.0639 O.3       1 <0>        -0.6033
     25 C19         6.1810  -13.6184    0.2101 C.3       1 <0>        -0.1373
     26 C20         4.2917  -12.7594    1.6080 C.3       1 <0>        -0.1468
     27 N2          3.8289   -9.3567   -0.1664 N.2       1 <0>        -0.6064
     28 C21         2.7103   -8.6659    0.0045 C.2       1 <0>         0.4951
     29 N3          2.7428   -7.3500   -0.0531 N.2       1 <0>        -0.6140
     30 C22         1.1602  -10.0653   -2.1697 C.ar      1 <0>        -0.0221
     31 C23         2.1140   -9.2379   -2.7336 C.ar      1 <0>        -0.1566
     32 C24         1.9525   -8.7729   -4.0255 C.ar      1 <0>        -0.0845
     33 C25         0.8368   -9.1337   -4.7564 C.ar      1 <0>        -0.2165
     34 C26        -0.1214   -9.9635   -4.1930 C.ar      1 <0>         0.1191
     35 C27         0.0461  -10.4338   -2.8983 C.ar      1 <0>        -0.1228
     36 O3         -1.2196  -10.3199   -4.9099 O.3       1 <0>        -0.3185
     37 C28        -1.3230   -9.8031   -6.2381 C.3       1 <0>         0.0304
     38 H3          1.0042    1.8801    0.0026 H         1 <0>         0.0699
     39 H4         -0.5455    1.8639   -0.8728 H         1 <0>         0.0650
     40 H5         -0.5286    1.8543    0.9071 H         1 <0>         0.0649
     41 H6         -0.0064   -0.1436   -2.1312 H         1 <0>         0.1224
     42 H7          0.0266   -2.6057   -2.1448 H         1 <0>         0.1261
     43 H8          0.0491   -2.6289    2.1200 H         1 <0>         0.1259
     44 H9          0.0245   -0.1667    2.1335 H         1 <0>         0.1224
     45 H10        -0.4447   -4.6501    0.8693 H         1 <0>         0.1026
     46 H11        -0.4546   -4.6404   -0.9106 H         1 <0>         0.1040
     47 H12         5.5779  -11.4599   -1.3163 H         1 <0>         0.0904
     48 H13         5.8158  -10.8957    0.3564 H         1 <0>         0.0897
     49 H14         4.3062  -13.6079   -1.7340 H         1 <0>         0.0884
     50 H15         3.6281  -14.5011   -0.3515 H         1 <0>         0.0835
     51 H16         6.8974  -13.1220    0.8647 H         1 <0>         0.0583
     52 H17         5.9915  -14.6270    0.5774 H         1 <0>         0.0576
     53 H18         6.5870  -13.6699   -0.8002 H         1 <0>         0.0569
     54 H19         3.3558  -12.2009    1.5906 H         1 <0>         0.0620
     55 H20         4.1053  -13.7694    1.9730 H         1 <0>         0.0555
     56 H21         5.0008  -12.2597    2.2679 H         1 <0>         0.0560
     57 H22         2.9864   -8.9542   -2.1637 H         1 <0>         0.1300
     58 H23         2.6988   -8.1269   -4.4637 H         1 <0>         0.1182
     59 H24         0.7107   -8.7697   -5.7653 H         1 <0>         0.1206
     60 H25        -0.6962  -11.0838   -2.4592 H         1 <0>         0.1282
     61 H26        -2.2434  -10.1635   -6.6975 H         1 <0>         0.0947
     62 H27        -1.3362   -8.7137   -6.2042 H         1 <0>         0.0513
     63 H28        -0.4683  -10.1380   -6.8259 H         1 <0>         0.0511
@<TRIPOS>BOND
     1    1    2 1
     2    1   38 1
     3    1   39 1
     4    1   40 1
     5    2    7 ar
     6    2    3 ar
     7    3    4 ar
     8    3   41 1
     9    4    5 ar
    10    4   42 1
    11    5    6 ar
    12    5    8 1
    13    6    7 ar
    14    6   43 1
    15    7   44 1
    16    8    9 1
    17    8   45 1
    18    8   46 1
    19    9   10 1
    20   10   29 1
    21   10   11 2
    22   11   12 1
    23   12   13 2
    24   12   14 1
    25   14   15 1
    26   14   28 1
    27   14   16 1
    28   16   17 1
    29   16   18 1
    30   16   30 1
    31   18   23 2
    32   18   19 1
    33   19   20 1
    34   19   27 2
    35   20   21 1
    36   20   47 1
    37   20   48 1
    38   21   22 1
    39   21   25 1
    40   21   26 1
    41   22   23 1
    42   22   49 1
    43   22   50 1
    44   23   24 1
    45   25   51 1
    46   25   52 1
    47   25   53 1
    48   26   54 1
    49   26   55 1
    50   26   56 1
    51   27   28 1
    52   28   29 2
    53   30   35 ar
    54   30   31 ar
    55   31   32 ar
    56   31   57 1
    57   32   33 ar
    58   32   58 1
    59   33   34 ar
    60   33   59 1
    61   34   35 ar
    62   34   36 1
    63   35   60 1
    64   36   37 1
    65   37   61 1
    66   37   62 1
    67   37   63 1
@<TRIPOS>MOLECULE
ZINC02311234
   54    57     0     0     0
SMALL
USER_CHARGES

@<TRIPOS>ATOM
      1 C1         -0.0231    1.3974    0.0408 C.ar      1 <0>        -0.0893
      2 C2          1.1650    2.1045    0.0347 C.ar      1 <0>        -0.1203
      3 C3          2.3708    1.4295    0.0115 C.ar      1 <0>        -0.0728
      4 C4          2.3890    0.0471   -0.0052 C.ar      1 <0>        -0.1638
      5 C5          1.2013   -0.6598    0.0018 C.ar      1 <0>        -0.0239
      6 C6         -0.0049    0.0155    0.0236 C.ar      1 <0>        -0.1081
      7 C7          1.2212   -2.1665   -0.0173 C.3       1 <0>         0.0724
      8 H1          2.2555   -2.5100   -0.0354 H         1 <0>         0.1025
      9 C8          0.5528   -2.6832    1.2227 C.2       1 <0>        -0.0892
     10 C9         -0.7167   -3.1696    1.1847 C.2       1 <0>         0.1496
     11 N1         -1.4082   -3.2010   -0.0040 N.pl3     1 <0>        -0.6395
     12 C10        -0.7434   -3.1340   -1.1982 C.2       1 <0>         0.2178
     13 C11         0.5162   -2.6546   -1.2577 C.2       1 <0>        -0.2613
     14 C12         1.2108   -2.5975   -2.4785 C.2       1 <0>         0.3918
     15 O1          2.3420   -2.1542   -2.5003 O.2       1 <0>        -0.4421
     16 C13         0.5805   -3.0741   -3.7583 C.3       1 <0>        -0.1669
     17 C14        -0.4415   -4.1686   -3.4337 C.3       1 <0>        -0.1115
     18 C15        -1.4562   -3.6041   -2.4424 C.3       1 <0>        -0.0960
     19 S1         -1.4765   -3.7611    2.6604 S.3       1 <0>         0.0373
     20 C16        -3.1246   -4.2946    2.1219 C.3       1 <0>        -0.1750
     21 C17        -3.8906   -4.8296    3.3043 C.2       1 <0>         0.5349
     22 O2         -3.3754   -4.8492    4.4021 O.2       1 <0>        -0.4882
     23 N2         -5.1481   -5.2865    3.1418 N.am      1 <0>        -0.6642
     24 C18        -5.8243   -5.8719    4.2178 C.ar      1 <0>         0.1502
     25 C19        -6.6933   -6.9332    3.9991 C.ar      1 <0>        -0.1363
     26 C20        -7.3592   -7.5097    5.0628 C.ar      1 <0>        -0.0871
     27 C21        -7.1622   -7.0314    6.3452 C.ar      1 <0>        -0.1201
     28 C22        -6.2973   -5.9742    6.5671 C.ar      1 <0>        -0.0169
     29 C23        -5.6236   -5.3969    5.5068 C.ar      1 <0>        -0.1129
     30 Cl1        -6.0534   -5.3765    8.1785 Cl        1 <0>        -0.0585
     31 C24         1.2631   -2.6642    2.4659 C.1       1 <0>         0.2477
     32 N3          1.8266   -2.6491    3.4522 N.1       1 <0>        -0.3897
     33 C25         3.7038   -0.6889   -0.0315 C.3       1 <0>         0.4929
     34 F1          4.7550    0.2343   -0.0345 F         1 <0>        -0.1820
     35 F2          3.8037   -1.5056    1.1000 F         1 <0>        -0.1801
     36 F3          3.7732   -1.4785   -1.1842 F         1 <0>        -0.1403
     37 H2         -0.9653    1.9248    0.0634 H         1 <0>         0.1312
     38 H3          1.1507    3.1843    0.0477 H         1 <0>         0.1346
     39 H4          3.2988    1.9819    0.0060 H         1 <0>         0.1388
     40 H5         -0.9330   -0.5369    0.0283 H         1 <0>         0.1244
     41 H6         -2.3756   -3.2716    0.0044 H         1 <0>         0.4157
     42 H7          0.0787   -2.2409   -4.2501 H         1 <0>         0.1008
     43 H8          1.3505   -3.4776   -4.4159 H         1 <0>         0.0992
     44 H9         -0.9526   -4.4749   -4.3465 H         1 <0>         0.0887
     45 H10         0.0670   -5.0247   -2.9902 H         1 <0>         0.0767
     46 H11        -2.1749   -4.3797   -2.1777 H         1 <0>         0.0909
     47 H12        -1.9804   -2.7648   -2.8994 H         1 <0>         0.1024
     48 H13        -3.6600   -3.4461    1.6960 H         1 <0>         0.1268
     49 H14        -3.0254   -5.0766    1.3692 H         1 <0>         0.1298
     50 H15        -5.5844   -5.2094    2.2788 H         1 <0>         0.4164
     51 H16        -6.8484   -7.3072    2.9978 H         1 <0>         0.1341
     52 H17        -8.0348   -8.3349    4.8928 H         1 <0>         0.1398
     53 H18        -7.6848   -7.4835    7.1753 H         1 <0>         0.1375
     54 H19        -4.9452   -4.5747    5.6805 H         1 <0>         0.1508
@<TRIPOS>BOND
     1    1    6 ar
     2    1    2 ar
     3    1   37 1
     4    2    3 ar
     5    2   38 1
     6    3    4 ar
     7    3   39 1
     8    4    5 ar
     9    4   33 1
    10    5    6 ar
    11    5    7 1
    12    6   40 1
    13    7    8 1
    14    7   13 1
    15    7    9 1
    16    9   10 2
    17    9   31 1
    18   10   11 1
    19   10   19 1
    20   11   12 1
    21   11   41 1
    22   12   18 1
    23   12   13 2
    24   13   14 1
    25   14   15 2
    26   14   16 1
    27   16   17 1
    28   16   42 1
    29   16   43 1
    30   17   18 1
    31   17   44 1
    32   17   45 1
    33   18   46 1
    34   18   47 1
    35   19   20 1
    36   20   21 1
    37   20   48 1
    38   20   49 1
    39   21   22 2
    40   21   23 am
    41   23   24 1
    42   23   50 1
    43   24   29 ar
    44   24   25 ar
    45   25   26 ar
    46   25   51 1
    47   26   27 ar
    48   26   52 1
    49   27   28 ar
    50   27   53 1
    51   28   29 ar
    52   28   30 1
    53   29   54 1
    54   31   32 3
    55   33   34 1
    56   33   35 1
    57   33   36 1
@<TRIPOS>MOLECULE
ZINC06704841
   51    54     0     0     0
SMALL
USER_CHARGES
4-[(2-fluorophenyl)methoxy]-1-(3-phenylpropyl)indole-2-carboxylic acid
@<TRIPOS>ATOM
      1 C1         -2.0785    2.5007   -3.4529 C.ar      1 <0>        -0.1312
      2 C2         -1.0663    3.2585   -2.8942 C.ar      1 <0>        -0.1192
      3 C3         -0.3980    2.8008   -1.7740 C.ar      1 <0>        -0.1123
      4 C4         -0.7416    1.5850   -1.2129 C.ar      1 <0>        -0.0717
      5 C5         -1.7499    0.8246   -1.7750 C.ar      1 <0>        -0.1200
      6 C6         -2.4220    1.2850   -2.8918 C.ar      1 <0>        -0.1229
      7 C7         -0.0127    1.0858    0.0080 C.3       1 <0>        -0.0766
      8 C8         -0.7288    1.5792    1.2668 C.3       1 <0>        -0.1173
      9 C9          0.0111    1.0724    2.5063 C.3       1 <0>         0.1099
     10 N1         -0.6746    1.5449    3.7117 N.pl3     1 <0>        -0.4455
     11 C10        -1.6824    0.8819    4.3719 C.ar      1 <0>         0.1184
     12 C11        -2.3272   -0.3313    4.1482 C.ar      1 <0>        -0.1580
     13 C12        -3.3259   -0.7495    4.9994 C.ar      1 <0>        -0.0741
     14 C13        -3.7032    0.0274    6.0858 C.ar      1 <0>        -0.2547
     15 C14        -3.0809    1.2349    6.3309 C.ar      1 <0>         0.1757
     16 C15        -2.0589    1.6765    5.4719 C.ar      1 <0>        -0.1271
     17 C16        -1.2451    2.8322    5.4466 C.2       1 <0>        -0.1621
     18 C17        -0.4111    2.7287    4.3770 C.2       1 <0>         0.0552
     19 C18         0.6028    3.7161    3.9890 C.2       1 <0>         0.5129
     20 O1          0.7507    4.7268    4.6486 O.co2     1 <0>        -0.6132
     21 O2         -3.4529    1.9914    7.3951 O.3       1 <0>        -0.3040
     22 C19        -4.4983    1.4774    8.2228 C.3       1 <0>         0.1052
     23 C20        -4.7731    2.4456    9.3444 C.ar      1 <0>        -0.1218
     24 C21        -4.0439    3.6157    9.4419 C.ar      1 <0>        -0.0662
     25 C22        -4.2996    4.5067   10.4672 C.ar      1 <0>        -0.1275
     26 C23        -5.2773    4.2233   11.4030 C.ar      1 <0>        -0.0932
     27 C24        -6.0037    3.0515   11.3108 C.ar      1 <0>        -0.1553
     28 C25        -5.7523    2.1608   10.2807 C.ar      1 <0>         0.1012
     29 F1         -6.4616    1.0146   10.1898 F         1 <0>        -0.1391
     30 H1         -2.6011    2.8587   -4.3276 H         1 <0>         0.1169
     31 H2         -0.7979    4.2083   -3.3326 H         1 <0>         0.1198
     32 H3          0.3927    3.3928   -1.3375 H         1 <0>         0.1265
     33 H4         -2.0153   -0.1273   -1.3392 H         1 <0>         0.1190
     34 H5         -3.2130    0.6931   -3.3281 H         1 <0>         0.1176
     35 H6          0.0021   -0.0041    0.0020 H         1 <0>         0.0687
     36 H7          1.0099    1.4631    0.0003 H         1 <0>         0.0816
     37 H8         -0.7436    2.6691    1.2728 H         1 <0>         0.0782
     38 H9         -1.7514    1.2020    1.2746 H         1 <0>         0.0559
     39 H10         0.0259   -0.0175    2.5003 H         1 <0>         0.0685
     40 H11         1.0337    1.4497    2.4986 H         1 <0>         0.1243
     41 H12        -2.0435   -0.9458    3.3066 H         1 <0>         0.1145
     42 H13        -3.8212   -1.6922    4.8193 H         1 <0>         0.1200
     43 H14        -4.4888   -0.3147    6.7433 H         1 <0>         0.1200
     44 H15        -1.2766    3.6487    6.1528 H         1 <0>         0.1446
     45 H16        -5.4016    1.3454    7.6272 H         1 <0>         0.0776
     46 H17        -4.1936    0.5169    8.6384 H         1 <0>         0.0776
     47 H18        -3.2769    3.8360    8.7141 H         1 <0>         0.1474
     48 H19        -3.7324    5.4228   10.5401 H         1 <0>         0.1329
     49 H20        -5.4730    4.9179   12.2065 H         1 <0>         0.1322
     50 H21        -6.7671    2.8302   12.0420 H         1 <0>         0.1356
     51 O3          1.3705    3.5024    2.9010 O.co2     1 <0>        -0.7451
@<TRIPOS>BOND
     1    1    6 ar
     2    1    2 ar
     3    1   30 1
     4    2    3 ar
     5    2   31 1
     6    3    4 ar
     7    3   32 1
     8    4    5 ar
     9    4    7 1
    10    5    6 ar
    11    5   33 1
    12    6   34 1
    13    7    8 1
    14    7   35 1
    15    7   36 1
    16    8    9 1
    17    8   37 1
    18    8   38 1
    19    9   10 1
    20    9   39 1
    21    9   40 1
    22   10   18 1
    23   10   11 1
    24   11   16 ar
    25   11   12 ar
    26   12   13 ar
    27   12   41 1
    28   13   14 ar
    29   13   42 1
    30   14   15 ar
    31   14   43 1
    32   15   16 ar
    33   15   21 1
    34   16   17 1
    35   17   18 2
    36   17   44 1
    37   18   19 1
    38   19   20 2
    39   19   51 1
    40   21   22 1
    41   22   23 1
    42   22   45 1
    43   22   46 1
    44   23   28 ar
    45   23   24 ar
    46   24   25 ar
    47   24   47 1
    48   25   26 ar
    49   25   48 1
    50   26   27 ar
    51   26   49 1
    52   27   28 ar
    53   27   50 1
    54   28   29 1
@<TRIPOS>MOLECULE
ZINC05642307
   38    39     0     0     0
SMALL
USER_CHARGES

@<TRIPOS>ATOM
      1 C1          0.0038    1.5269   -0.0444 C.3       1 <0>        -0.1527
      2 C2          0.0231   -0.0030   -0.0498 C.3       1 <0>        -0.1163
      3 C3          0.7484   -0.4994   -1.3022 C.3       1 <0>        -0.0740
      4 C4          0.7675   -2.0063   -1.3075 C.2       1 <0>         0.1951
      5 C5         -0.1942   -2.6974   -1.9866 C.2       1 <0>        -0.2915
      6 C6         -0.1560   -4.1027   -1.9773 C.2       1 <0>         0.5300
      7 N1          0.8323   -4.7207   -1.2958 N.am      1 <0>        -0.6138
      8 C7          1.7649   -3.9789   -0.6364 C.2       1 <0>         0.3569
      9 N2          1.7247   -2.6605   -0.6548 N.2       1 <0>        -0.5442
     10 S1          3.0507   -4.7939    0.2508 S.3       1 <0>         0.0840
     11 C8          4.0299   -3.4365    0.9502 C.3       1 <0>        -0.1438
     12 C9          5.1784   -4.0030    1.7446 C.2       1 <0>         0.5384
     13 O1          5.3222   -5.2043    1.8305 O.2       1 <0>        -0.4942
     14 N3          6.0458   -3.1748    2.3596 N.am      1 <0>        -0.6607
     15 C10         7.0568   -3.6992    3.1742 C.ar      1 <0>         0.1724
     16 C11         7.6537   -4.9098    2.8492 C.ar      1 <0>        -0.0913
     17 C12         8.6514   -5.4253    3.6550 C.ar      1 <0>        -0.0084
     18 C13         9.0558   -4.7351    4.7857 C.ar      1 <0>        -0.0347
     19 C14         8.4626   -3.5286    5.1116 C.ar      1 <0>        -0.0695
     20 C15         7.4683   -3.0060    4.3059 C.ar      1 <0>        -0.0499
     21 Cl1         6.7298   -1.4882    4.7113 Cl        1 <0>        -0.0379
     22 Cl2        10.3088   -5.3855    5.7960 Cl        1 <0>        -0.0294
     23 Cl3         9.3979   -6.9393    3.2497 Cl        1 <0>        -0.0267
     24 O2         -1.0000   -4.7515   -2.5734 O.2       1 <0>        -0.5310
     25 H1          1.0267    1.9032   -0.0451 H         1 <0>         0.0567
     26 H2         -0.5164    1.8868   -0.9322 H         1 <0>         0.0571
     27 H3         -0.5129    1.8806    0.8478 H         1 <0>         0.0582
     28 H4          0.5433   -0.3629    0.8379 H         1 <0>         0.0667
     29 H5         -0.9998   -0.3793   -0.0492 H         1 <0>         0.0651
     30 H6          0.2282   -0.1395   -2.1899 H         1 <0>         0.0884
     31 H7          1.7713   -0.1231   -1.3029 H         1 <0>         0.0884
     32 H8         -0.9719   -2.1731   -2.5220 H         1 <0>         0.1578
     33 H9          4.4179   -2.8151    0.1431 H         1 <0>         0.1398
     34 H10         3.3996   -2.8326    1.6029 H         1 <0>         0.1398
     35 H11         5.9696   -2.2155    2.2379 H         1 <0>         0.4221
     36 H12         7.3384   -5.4485    1.9678 H         1 <0>         0.1705
     37 H13         8.7797   -2.9924    5.9938 H         1 <0>         0.1606
     38 H14         0.8778   -5.6894   -1.2757 H         1 <0>         0.4219
@<TRIPOS>BOND
     1    1    2 1
     2    1   25 1
     3    1   26 1
     4    1   27 1
     5    2    3 1
     6    2   28 1
     7    2   29 1
     8    3   30 1
     9    3   31 1
    10    3    4 1
    11    4    5 2
    12    4    9 1
    13    5    6 1
    14    5   32 1
    15    6    7 am
    16    6   24 2
    17    7    8 1
    18    7   38 1
    19    8   10 1
    20    8    9 2
    21   10   11 1
    22   11   12 1
    23   11   33 1
    24   11   34 1
    25   12   13 2
    26   12   14 am
    27   14   15 1
    28   14   35 1
    29   15   20 ar
    30   15   16 ar
    31   16   17 ar
    32   16   36 1
    33   17   18 ar
    34   17   23 1
    35   18   19 ar
    36   18   22 1
    37   19   20 ar
    38   19   37 1
    39   20   21 1
@<TRIPOS>MOLECULE
ZINC12475926
   51    53     0     0     0
SMALL
USER_CHARGES

@<TRIPOS>ATOM
      1 C1         -1.0458    0.3841   -0.3330 C.3       1 <0>        -0.1530
      2 C2         -0.7281   -1.1123   -0.3017 C.3       1 <0>        -0.1157
      3 C3          0.1215   -1.4789   -1.5202 C.3       1 <0>        -0.0748
      4 C4          0.4344   -2.9527   -1.4892 C.2       1 <0>         0.1957
      5 C5         -0.3473   -3.8299   -2.1842 C.2       1 <0>        -0.2898
      6 C6         -0.0357   -5.2001   -2.1409 C.2       1 <0>         0.5299
      7 O1         -0.7131   -6.0113   -2.7505 O.2       1 <0>        -0.5303
      8 N1          1.0277   -5.6012   -1.4120 N.am      1 <0>        -0.6144
      9 H1          1.2611   -6.5417   -1.3683 H         1 <0>         0.4213
     10 C7          1.7718   -4.6804   -0.7388 C.2       1 <0>         0.3681
     11 N2          1.4754   -3.3960   -0.7891 N.2       1 <0>        -0.5390
     12 S1          3.1575   -5.2130    0.2102 S.3       1 <0>         0.0186
     13 C8          3.8256   -3.6788    0.9105 C.3       1 <0>        -0.0715
     14 C9          5.0317   -3.9962    1.7564 C.2       1 <0>         0.0286
     15 C10         6.2851   -3.7231    1.3137 C.2       1 <0>        -0.2128
     16 C11         7.3985   -4.0298    2.1259 C.2       1 <0>         0.5101
     17 O2          8.5179   -3.7798    1.7170 O.2       1 <0>        -0.4528
     18 O3          7.2546   -4.5893    3.3370 O.3       1 <0>        -0.2678
     19 C12         6.0357   -4.8863    3.8363 C.ar      1 <0>         0.1505
     20 C13         4.8829   -4.6029    3.0829 C.ar      1 <0>        -0.1544
     21 C14         3.6194   -4.9044    3.5998 C.ar      1 <0>        -0.0472
     22 C15         3.5136   -5.4739    4.8489 C.ar      1 <0>        -0.0935
     23 C16         4.6519   -5.7484    5.5929 C.ar      1 <0>        -0.0211
     24 C17         5.9054   -5.4657    5.0915 C.ar      1 <0>        -0.1321
     25 C18         4.5180   -6.3715    6.9585 C.3       1 <0>        -0.1257
     26 C19         2.1540   -5.8004    5.4110 C.3       1 <0>        -0.0614
     27 C20         1.3763   -4.5047    5.6497 C.3       1 <0>        -0.1465
     28 C21         1.3894   -6.6788    4.4187 C.3       1 <0>        -0.1475
     29 H2         -0.1165    0.9533   -0.3126 H         1 <0>         0.0571
     30 H3         -1.5962    0.6196   -1.2439 H         1 <0>         0.0572
     31 H4         -1.6510    0.6453    0.5351 H         1 <0>         0.0584
     32 H5         -0.1776   -1.3478    0.6092 H         1 <0>         0.0666
     33 H6         -1.6574   -1.6815   -0.3220 H         1 <0>         0.0649
     34 H7         -0.4290   -1.2434   -2.4310 H         1 <0>         0.0888
     35 H8          1.0508   -0.9097   -1.4998 H         1 <0>         0.0892
     36 H9         -1.1917   -3.4770   -2.7578 H         1 <0>         0.1586
     37 H10         4.1150   -3.0066    0.1028 H         1 <0>         0.1272
     38 H11         3.0652   -3.1996    1.5272 H         1 <0>         0.1268
     39 H12         6.4305   -3.2728    0.3429 H         1 <0>         0.1700
     40 H13         2.7315   -4.6915    3.0229 H         1 <0>         0.1384
     41 H14         6.7844   -5.6835    5.6799 H         1 <0>         0.1463
     42 H15         4.4355   -7.4536    6.8576 H         1 <0>         0.0824
     43 H16         5.3962   -6.1282    7.5566 H         1 <0>         0.0750
     44 H17         3.6254   -5.9832    7.4491 H         1 <0>         0.0797
     45 H18         2.2695   -6.3339    6.3545 H         1 <0>         0.0890
     46 H19         1.2608   -3.9712    4.7062 H         1 <0>         0.0556
     47 H20         0.3929   -4.7408    6.0563 H         1 <0>         0.0623
     48 H21         1.9210   -3.8789    6.3566 H         1 <0>         0.0579
     49 H22         1.9435   -7.6019    4.2486 H         1 <0>         0.0588
     50 H23         0.4060   -6.9150    4.8253 H         1 <0>         0.0617
     51 H24         1.2739   -6.1453    3.4752 H         1 <0>         0.0565
@<TRIPOS>BOND
     1    1    2 1
     2    1   29 1
     3    1   30 1
     4    1   31 1
     5    2    3 1
     6    2   32 1
     7    2   33 1
     8    3    4 1
     9    3   34 1
    10    3   35 1
    11    4   11 1
    12    4    5 2
    13    5    6 1
    14    5   36 1
    15    6    7 2
    16    6    8 am
    17    8    9 1
    18    8   10 1
    19   10   11 2
    20   10   12 1
    21   12   13 1
    22   13   14 1
    23   13   37 1
    24   13   38 1
    25   14   20 1
    26   14   15 2
    27   15   16 1
    28   15   39 1
    29   16   17 2
    30   16   18 1
    31   18   19 1
    32   19   24 ar
    33   19   20 ar
    34   20   21 ar
    35   21   22 ar
    36   21   40 1
    37   22   23 ar
    38   22   26 1
    39   23   24 ar
    40   23   25 1
    41   24   41 1
    42   25   42 1
    43   25   43 1
    44   25   44 1
    45   26   27 1
    46   26   28 1
    47   26   45 1
    48   27   46 1
    49   27   47 1
    50   27   48 1
    51   28   49 1
    52   28   50 1
    53   28   51 1
@<TRIPOS>MOLECULE
ZINC43765315
   71    74     0     0     0
SMALL
USER_CHARGES

@<TRIPOS>ATOM
      1 C1          0.2562    1.4981    0.1433 C.3       1 <0>        -0.1676
      2 C2          0.0021   -0.0041    0.0020 C.3       1 <0>        -0.0813
      3 H1         -1.0715   -0.1927    0.0035 H         1 <0>         0.0611
      4 C3          0.6514   -0.7435    1.1736 C.3       1 <0>        -0.0878
      5 C4         -0.0377   -0.3373    2.4778 C.3       1 <0>        -0.1822
      6 C5          0.6019   -1.0657    3.6318 C.2       1 <0>         0.4877
      7 O1          1.5234   -1.8380    3.4297 O.co2     1 <0>        -0.7010
      8 O2          0.1978   -0.8826    4.7674 O.co2     1 <0>        -0.7112
      9 C6          0.6039   -0.5006   -1.3091 C.3       1 <0>        -0.0706
     10 H2          1.6560   -0.2161   -1.3746 H         1 <0>         0.0656
     11 C7          0.4679   -2.0430   -1.4125 C.3       1 <0>        -0.1256
     12 C8         -0.4563   -2.3176   -2.6332 C.3       1 <0>        -0.1184
     13 C9         -1.2690   -1.0129   -2.7140 C.3       1 <0>        -0.0813
     14 H3         -1.9711   -0.9887   -1.8777 H         1 <0>         0.0806
     15 C10        -0.1515    0.0415   -2.5238 C.3       1 <0>        -0.0504
     16 C11        -0.7989    1.3996   -2.4051 C.3       1 <0>        -0.1148
     17 C12        -1.5868    1.7043   -3.6854 C.3       1 <0>        -0.1124
     18 C13        -2.6020    0.6241   -4.0491 C.3       1 <0>        -0.0570
     19 H4         -2.8654    0.8170   -5.1208 H         1 <0>         0.0520
     20 C14        -1.9884   -0.7685   -4.0158 C.3       1 <0>        -0.0636
     21 H5         -1.2670   -0.8499   -4.8486 H         1 <0>         0.0642
     22 C15        -3.0340   -1.8573   -4.2587 C.3       1 <0>        -0.1136
     23 C16        -4.1578   -1.7052   -3.2328 C.3       1 <0>        -0.1213
     24 C17        -4.8552   -0.3722   -3.5050 C.3       1 <0>        -0.0660
     25 H6         -5.1600   -0.3619   -4.5657 H         1 <0>         0.0713
     26 C18        -3.9047    0.7952   -3.2761 C.3       1 <0>        -0.0342
     27 C19        -3.6331    1.0350   -1.7972 C.3       1 <0>        -0.1100
     28 C20        -4.9263    1.1357   -0.9890 C.3       1 <0>        -0.1373
     29 C21        -5.7433   -0.1435   -1.1765 C.3       1 <0>         0.0861
     30 H7         -5.1492   -1.0032   -0.8685 H         1 <0>         0.0865
     31 C22        -6.1169   -0.2730   -2.6534 C.3       1 <0>        -0.1061
     32 O3         -6.9300   -0.0734   -0.3847 O.3       1 <0>        -0.3527
     33 C23        -6.8554   -0.5486    0.8684 C.2       1 <0>         0.4513
     34 O4         -5.8165   -1.0089    1.2791 O.2       1 <0>        -0.5005
     35 C24        -8.0675   -0.5081    1.7630 C.3       1 <0>        -0.1464
     36 C25        -4.6015    2.0579   -3.8420 C.3       1 <0>        -0.1513
     37 C26         0.8201    0.0402   -3.7111 C.3       1 <0>        -0.1420
     38 H8          1.3040    1.7108   -0.0687 H         1 <0>         0.0472
     39 H9         -0.3745    2.0410   -0.5608 H         1 <0>         0.0666
     40 H10         0.0200    1.8125    1.1599 H         1 <0>         0.0550
     41 H11         0.5473   -1.8186    1.0272 H         1 <0>         0.0612
     42 H12         1.7089   -0.4846    1.2254 H         1 <0>         0.0545
     43 H13         0.0664    0.7378    2.6242 H         1 <0>         0.0553
     44 H14        -1.0952   -0.5963    2.4260 H         1 <0>         0.0522
     45 H15         1.4441   -2.4961   -1.5725 H         1 <0>         0.0587
     46 H16         0.0117   -2.4373   -0.5045 H         1 <0>         0.0748
     47 H17         0.1108   -2.4986   -3.5367 H         1 <0>         0.0643
     48 H18        -1.1213   -3.1578   -2.4210 H         1 <0>         0.0564
     49 H19        -1.4596    1.4436   -1.5424 H         1 <0>         0.0851
     50 H20        -0.0174    2.1616   -2.2775 H         1 <0>         0.0589
     51 H21        -2.1003    2.6621   -3.5515 H         1 <0>         0.0576
     52 H22        -0.8967    1.8387   -4.5227 H         1 <0>         0.0563
     53 H23        -3.4407   -1.7486   -5.2636 H         1 <0>         0.0571
     54 H24        -2.5714   -2.8364   -4.1546 H         1 <0>         0.0645
     55 H25        -4.8693   -2.5225   -3.3482 H         1 <0>         0.0593
     56 H26        -3.7456   -1.7143   -2.2274 H         1 <0>         0.0705
     57 H27        -3.0209    0.2369   -1.3853 H         1 <0>         0.0777
     58 H28        -3.0970    1.9876   -1.6875 H         1 <0>         0.0725
     59 H29        -4.6781    1.2498    0.0703 H         1 <0>         0.0657
     60 H30        -5.5088    1.9964   -1.3058 H         1 <0>         0.0704
     61 H31        -6.7182    0.5814   -2.9572 H         1 <0>         0.0735
     62 H32        -6.7123   -1.1832   -2.7874 H         1 <0>         0.0669
     63 H33        -8.6389   -1.4284    1.6426 H         1 <0>         0.1023
     64 H34        -7.7498   -0.4109    2.8011 H         1 <0>         0.1028
     65 H35        -8.6905    0.3445    1.4924 H         1 <0>         0.0914
     66 H36        -4.7987    1.9185   -4.9049 H         1 <0>         0.0512
     67 H37        -5.5423    2.2202   -3.3161 H         1 <0>         0.0568
     68 H38        -3.9536    2.9234   -3.7031 H         1 <0>         0.0559
     69 H39         1.1825   -0.9734   -3.8828 H         1 <0>         0.0550
     70 H40         0.3049    0.3978   -4.6026 H         1 <0>         0.0531
     71 H41         1.6632    0.6951   -3.4914 H         1 <0>         0.0496
@<TRIPOS>BOND
     1    1    2 1
     2    1   38 1
     3    1   39 1
     4    1   40 1
     5    2    3 1
     6    2    4 1
     7    2    9 1
     8    4    5 1
     9    4   41 1
    10    4   42 1
    11    5    6 1
    12    5   43 1
    13    5   44 1
    14    6    7 2
    15    6    8 1
    16    9   10 1
    17    9   15 1
    18    9   11 1
    19   11   12 1
    20   11   45 1
    21   11   46 1
    22   12   13 1
    23   12   47 1
    24   12   48 1
    25   13   14 1
    26   13   20 1
    27   13   15 1
    28   15   16 1
    29   15   37 1
    30   16   17 1
    31   16   49 1
    32   16   50 1
    33   17   18 1
    34   17   51 1
    35   17   52 1
    36   18   19 1
    37   18   26 1
    38   18   20 1
    39   20   21 1
    40   20   22 1
    41   22   23 1
    42   22   53 1
    43   22   54 1
    44   23   24 1
    45   23   55 1
    46   23   56 1
    47   24   25 1
    48   24   31 1
    49   24   26 1
    50   26   27 1
    51   26   36 1
    52   27   28 1
    53   27   57 1
    54   27   58 1
    55   28   29 1
    56   28   59 1
    57   28   60 1
    58   29   30 1
    59   29   31 1
    60   29   32 1
    61   31   61 1
    62   31   62 1
    63   32   33 1
    64   33   34 2
    65   33   35 1
    66   35   63 1
    67   35   64 1
    68   35   65 1
    69   36   66 1
    70   36   67 1
    71   36   68 1
    72   37   69 1
    73   37   70 1
    74   37   71 1
@<TRIPOS>MOLECULE
ZINC02312509
   53    56     0     0     0
SMALL
USER_CHARGES

@<TRIPOS>ATOM
      1 C1         -0.0187    1.5258    0.0104 C.3       1 <0>        -0.1378
      2 C2          0.0021   -0.0041    0.0020 C.3       1 <0>        -0.0887
      3 S1         -1.6997   -0.6320    0.0149 S.3       1 <0>        -0.1324
      4 C3         -1.5080   -2.3834    0.0037 C.2       1 <0>         0.2304
      5 C4         -2.6408   -3.1794    0.0046 C.2       1 <0>        -0.2195
      6 C5         -2.4336   -4.6834   -0.0058 C.3       1 <0>         0.1324
      7 H1         -2.9305   -5.0896   -0.8868 H         1 <0>         0.0452
      8 C6         -0.9910   -5.1520   -0.0170 C.2       1 <0>        -0.3964
      9 C7         -0.7125   -6.4655   -0.0300 C.2       1 <0>         0.3290
     10 C8          0.7079   -6.9644   -0.0401 C.3       1 <0>        -0.1298
     11 C9          1.5995   -5.9373   -0.7440 C.3       1 <0>        -0.1087
     12 C10         1.4697   -4.5927   -0.0233 C.3       1 <0>        -0.0766
     13 C11         0.0187   -4.1722   -0.0149 C.2       1 <0>         0.2982
     14 N1         -0.2760   -2.8961   -0.0109 N.2       1 <0>        -0.6386
     15 O1         -1.7251   -7.3553   -0.0335 O.3       1 <0>        -0.6308
     16 C12        -3.1022   -5.2592    1.2159 C.ar      1 <0>        -0.0663
     17 C13        -2.7057   -4.8517    2.4763 C.ar      1 <0>        -0.0679
     18 C14        -3.3167   -5.3784    3.5977 C.ar      1 <0>        -0.1578
     19 C15        -4.3292   -6.3166    3.4585 C.ar      1 <0>         0.1037
     20 C16        -4.7255   -6.7234    2.1928 C.ar      1 <0>        -0.2108
     21 C17        -4.1149   -6.1899    1.0744 C.ar      1 <0>        -0.0480
     22 O2         -4.9315   -6.8365    4.5602 O.3       1 <0>        -0.3152
     23 C18        -5.9661   -7.7976    4.3413 C.3       1 <0>         0.1016
     24 C19        -6.5124   -8.2586    5.6680 C.ar      1 <0>        -0.0881
     25 C20        -5.9480   -9.3465    6.3075 C.ar      1 <0>        -0.0959
     26 C21        -6.4491   -9.7693    7.5244 C.ar      1 <0>        -0.1247
     27 C22        -7.5144   -9.1042    8.1021 C.ar      1 <0>        -0.1155
     28 C23        -8.0782   -8.0158    7.4630 C.ar      1 <0>        -0.1249
     29 C24        -7.5743   -7.5903    6.2481 C.ar      1 <0>        -0.0965
     30 C25        -3.9537   -2.6076    0.0152 C.1       1 <0>         0.2931
     31 N2         -4.9952   -2.1541    0.0237 N.1       1 <0>        -0.4833
     32 H2          1.0039    1.9031    0.0027 H         1 <0>         0.0679
     33 H3         -0.5459    1.8868   -0.8726 H         1 <0>         0.0600
     34 H4         -0.5289    1.8773    0.9072 H         1 <0>         0.0601
     35 H5          0.5123   -0.3556   -0.8948 H         1 <0>         0.0867
     36 H6          0.5293   -0.3651    0.8851 H         1 <0>         0.0867
     37 H7          1.0521   -7.1033    0.9848 H         1 <0>         0.0782
     38 H8          0.7563   -7.9141   -0.5728 H         1 <0>         0.0739
     39 H9          2.6367   -6.2706   -0.7111 H         1 <0>         0.0662
     40 H10         1.2819   -5.8279   -1.7810 H         1 <0>         0.0655
     41 H11         1.8258   -4.6932    1.0020 H         1 <0>         0.0807
     42 H12         2.0635   -3.8415   -0.5440 H         1 <0>         0.0783
     43 H13        -1.9175   -4.1214    2.5841 H         1 <0>         0.1168
     44 H14        -3.0062   -5.0603    4.5820 H         1 <0>         0.1174
     45 H15        -5.5134   -7.4537    2.0818 H         1 <0>         0.1148
     46 H16        -4.4260   -6.5030    0.0887 H         1 <0>         0.1145
     47 H17        -6.7663   -7.3434    3.7569 H         1 <0>         0.0670
     48 H18        -5.5600   -8.6515    3.7991 H         1 <0>         0.0685
     49 H19        -5.1157   -9.8661    5.8562 H         1 <0>         0.1248
     50 H20        -6.0086  -10.6197    8.0237 H         1 <0>         0.1234
     51 H21        -7.9063   -9.4350    9.0525 H         1 <0>         0.1216
     52 H22        -8.9107   -7.4963    7.9141 H         1 <0>         0.1232
     53 H23        -8.0124   -6.7377    5.7506 H         1 <0>         0.1241
@<TRIPOS>BOND
     1    1    2 1
     2    1   32 1
     3    1   33 1
     4    1   34 1
     5    2    3 1
     6    2   35 1
     7    2   36 1
     8    3    4 1
     9    4   14 1
    10    4    5 2
    11    5    6 1
    12    5   30 1
    13    6    7 1
    14    6    8 1
    15    6   16 1
    16    8   13 1
    17    8    9 2
    18    9   10 1
    19    9   15 1
    20   10   11 1
    21   10   37 1
    22   10   38 1
    23   11   12 1
    24   11   39 1
    25   11   40 1
    26   12   13 1
    27   12   41 1
    28   12   42 1
    29   13   14 2
    30   16   21 ar
    31   16   17 ar
    32   17   18 ar
    33   17   43 1
    34   18   19 ar
    35   18   44 1
    36   19   20 ar
    37   19   22 1
    38   20   21 ar
    39   20   45 1
    40   21   46 1
    41   22   23 1
    42   23   24 1
    43   23   47 1
    44   23   48 1
    45   24   29 ar
    46   24   25 ar
    47   25   26 ar
    48   25   49 1
    49   26   27 ar
    50   26   50 1
    51   27   28 ar
    52   27   51 1
    53   28   29 ar
    54   28   52 1
    55   29   53 1
    56   30   31 3
@<TRIPOS>MOLECULE
ZINC00634482
   39    42     0     0     0
SMALL
USER_CHARGES
3-(2-anilinothiazol-5-yl)-8-methoxy-chromen-2-one
@<TRIPOS>ATOM
      1 C1        -13.4399    4.9636    2.0987 C.3       1 <0>         0.0231
      2 O1        -12.0395    4.7028    1.9847 O.3       1 <0>        -0.3021
      3 C2        -11.6513    3.8268    1.0200 C.ar      1 <0>         0.1218
      4 C3        -12.5971    3.2336    0.2033 C.ar      1 <0>        -0.1625
      5 C4        -12.2150    2.3386   -0.7850 C.ar      1 <0>        -0.0957
      6 C5        -10.8868    2.0283   -0.9663 C.ar      1 <0>        -0.0938
      7 C6         -9.9152    2.6200   -0.1479 C.ar      1 <0>        -0.1101
      8 C7        -10.2998    3.5268    0.8538 C.ar      1 <0>         0.1115
      9 O2         -9.3761    4.1064    1.6511 O.3       1 <0>        -0.2502
     10 C8         -8.0667    3.8466    1.5258 C.2       1 <0>         0.5161
     11 O3         -7.2715    4.3934    2.2672 O.2       1 <0>        -0.4398
     12 C9         -7.5810    2.9106    0.5044 C.2       1 <0>        -0.0991
     13 C10        -8.4979    2.3038   -0.3317 C.2       1 <0>         0.0004
     14 C11        -6.1396    2.6279    0.3695 C.2       1 <0>        -0.1804
     15 C12        -5.0821    3.4954    0.2754 C.2       1 <0>         0.1169
     16 N1         -3.8627    3.0196    0.1660 N.2       1 <0>        -0.5544
     17 C13        -3.6308    1.7160    0.1335 C.2       1 <0>         0.3639
     18 S1         -5.2864    1.0584    0.2838 S.3       1 <0>         0.0234
     19 N2         -2.4266    1.0421    0.0197 N.pl3     1 <0>        -0.6065
     20 C14        -1.2458    1.7546   -0.2062 C.ar      1 <0>         0.1547
     21 C15        -0.0279    1.2351    0.2145 C.ar      1 <0>        -0.1490
     22 C16         1.1376    1.9394   -0.0149 C.ar      1 <0>        -0.0953
     23 C17         1.0928    3.1627   -0.6584 C.ar      1 <0>        -0.1371
     24 C18        -0.1184    3.6852   -1.0738 C.ar      1 <0>        -0.0942
     25 C19        -1.2878    2.9866   -0.8468 C.ar      1 <0>        -0.1278
     26 H1        -13.8099    5.3778    1.1609 H         1 <0>         0.0601
     27 H2        -13.9658    4.0344    2.3181 H         1 <0>         0.0599
     28 H3        -13.6121    5.6774    2.9043 H         1 <0>         0.1068
     29 H4        -13.6426    3.4693    0.3366 H         1 <0>         0.1462
     30 H5        -12.9640    1.8830   -1.4158 H         1 <0>         0.1408
     31 H6        -10.5939    1.3311   -1.7374 H         1 <0>         0.1433
     32 H7         -8.1782    1.6130   -1.0979 H         1 <0>         0.1585
     33 H8         -5.2500    4.5621    0.2954 H         1 <0>         0.1728
     34 H9         -2.4025    0.0755    0.0966 H         1 <0>         0.4299
     35 H10         0.0078    0.2795    0.7164 H         1 <0>         0.1263
     36 H11         2.0851    1.5343    0.3082 H         1 <0>         0.1280
     37 H12         2.0059    3.7111   -0.8372 H         1 <0>         0.1245
     38 H13        -0.1497    4.6408   -1.5760 H         1 <0>         0.1268
     39 H14        -2.2333    3.3952   -1.1714 H         1 <0>         0.1424
@<TRIPOS>BOND
     1    1    2 1
     2    1   26 1
     3    1   27 1
     4    1   28 1
     5    2    3 1
     6    3    8 ar
     7    3    4 ar
     8    4    5 ar
     9    4   29 1
    10    5    6 ar
    11    5   30 1
    12    6    7 ar
    13    6   31 1
    14    7   13 1
    15    7    8 ar
    16    8    9 1
    17    9   10 1
    18   10   11 2
    19   10   12 1
    20   12   13 2
    21   12   14 1
    22   13   32 1
    23   14   18 1
    24   14   15 2
    25   15   16 1
    26   15   33 1
    27   16   17 2
    28   17   18 1
    29   17   19 1
    30   19   20 1
    31   19   34 1
    32   20   25 ar
    33   20   21 ar
    34   21   22 ar
    35   21   35 1
    36   22   23 ar
    37   22   36 1
    38   23   24 ar
    39   23   37 1
    40   24   25 ar
    41   24   38 1
    42   25   39 1
@<TRIPOS>MOLECULE
ZINC01221236
   47    51     0     0     0
SMALL
USER_CHARGES
3-(1H-indol-3-ylmethyleneamino)-2-(o-tolyl)quinazolin-4-one
@<TRIPOS>ATOM
      1 C1          2.2379   -1.7549   -2.4737 C.3       1 <0>        -0.1230
      2 C2          1.3259   -2.5374   -1.5643 C.ar      1 <0>        -0.0310
      3 C3          1.0615   -3.8659   -1.8267 C.ar      1 <0>        -0.1214
      4 C4          0.2203   -4.5842   -0.9959 C.ar      1 <0>        -0.0880
      5 C5         -0.3575   -3.9779    0.1057 C.ar      1 <0>        -0.1301
      6 C6         -0.0974   -2.6519    0.3825 C.ar      1 <0>        -0.0665
      7 C7          0.7510   -1.9213   -0.4516 C.ar      1 <0>        -0.0828
      8 C8          1.0342   -0.5002   -0.1612 C.2       1 <0>         0.4346
      9 N1          0.0308    0.3396   -0.1158 N.2       1 <0>        -0.5034
     10 C9          0.2155    1.6487    0.1432 C.ar      1 <0>         0.1552
     11 C10        -0.8585    2.5426    0.1968 C.ar      1 <0>        -0.1087
     12 C11        -0.6298    3.8640    0.4572 C.ar      1 <0>        -0.0718
     13 C12         0.6571    4.3363    0.6823 C.ar      1 <0>        -0.1370
     14 C13         1.7354    3.4799    0.6415 C.ar      1 <0>        -0.0399
     15 C14         1.5262    2.1281    0.3717 C.ar      1 <0>        -0.1951
     16 C15         2.6365    1.1679    0.3163 C.2       1 <0>         0.5549
     17 O1          3.7868    1.5203    0.5052 O.2       1 <0>        -0.4930
     18 N2          2.3327   -0.1233    0.0474 N.am      1 <0>        -0.4050
     19 N3          3.3543   -1.0799   -0.0174 N.2       1 <0>        -0.2652
     20 C16         3.4121   -2.0306    0.8684 C.2       1 <0>         0.2241
     21 C17         4.4610   -3.0564    0.7781 C.2       1 <0>        -0.1692
     22 C18         4.6205   -4.1324    1.5976 C.2       1 <0>         0.1255
     23 N4          5.7014   -4.8570    1.1986 N.pl3     1 <0>        -0.5785
     24 H1          6.0130   -5.6693    1.6274 H         1 <0>         0.4230
     25 C19         6.2940   -4.2680    0.1015 C.ar      1 <0>         0.0854
     26 C20         5.5503   -3.1186   -0.2131 C.ar      1 <0>        -0.0688
     27 C21         5.9247   -2.3178   -1.2894 C.ar      1 <0>        -0.0646
     28 C22         7.0268   -2.6590   -2.0425 C.ar      1 <0>        -0.1379
     29 C23         7.7623   -3.7939   -1.7330 C.ar      1 <0>        -0.0965
     30 C24         7.4035   -4.5952   -0.6711 C.ar      1 <0>        -0.1266
     31 H2          3.2740   -1.9170   -2.1763 H         1 <0>         0.0935
     32 H3          2.0987   -2.0881   -3.5021 H         1 <0>         0.0710
     33 H4          2.0007   -0.6935   -2.4004 H         1 <0>         0.0590
     34 H5          1.5090   -4.3450   -2.6850 H         1 <0>         0.1295
     35 H6          0.0134   -5.6227   -1.2082 H         1 <0>         0.1279
     36 H7         -1.0139   -4.5441    0.7499 H         1 <0>         0.1306
     37 H8         -0.5487   -2.1799    1.2427 H         1 <0>         0.1289
     38 H9         -1.8654    2.1902    0.0280 H         1 <0>         0.1404
     39 H10        -1.4624    4.5510    0.4927 H         1 <0>         0.1356
     40 H11         0.8136    5.3843    0.8909 H         1 <0>         0.1351
     41 H12         2.7339    3.8522    0.8172 H         1 <0>         0.1390
     42 H13         2.6894   -2.0663    1.6702 H         1 <0>         0.1198
     43 H14         3.9843   -4.3753    2.4358 H         1 <0>         0.1830
     44 H15         5.3541   -1.4336   -1.5323 H         1 <0>         0.1330
     45 H16         7.3197   -2.0398   -2.8775 H         1 <0>         0.1253
     46 H17         8.6247   -4.0515   -2.3300 H         1 <0>         0.1275
     47 H18         7.9833   -5.4763   -0.4387 H         1 <0>         0.1220
@<TRIPOS>BOND
     1    1    2 1
     2    1   31 1
     3    1   32 1
     4    1   33 1
     5    2    7 ar
     6    2    3 ar
     7    3    4 ar
     8    3   34 1
     9    4    5 ar
    10    4   35 1
    11    5    6 ar
    12    5   36 1
    13    6    7 ar
    14    6   37 1
    15    7    8 1
    16    8   18 1
    17    8    9 2
    18    9   10 1
    19   10   15 ar
    20   10   11 ar
    21   11   12 ar
    22   11   38 1
    23   12   13 ar
    24   12   39 1
    25   13   14 ar
    26   13   40 1
    27   14   15 ar
    28   14   41 1
    29   15   16 1
    30   16   17 2
    31   16   18 am
    32   18   19 1
    33   19   20 2
    34   20   21 1
    35   20   42 1
    36   21   26 1
    37   21   22 2
    38   22   23 1
    39   22   43 1
    40   23   24 1
    41   23   25 1
    42   25   30 ar
    43   25   26 ar
    44   26   27 ar
    45   27   28 ar
    46   27   44 1
    47   28   29 ar
    48   28   45 1
    49   29   30 ar
    50   29   46 1
    51   30   47 1
@<TRIPOS>MOLECULE
ZINC19625191
   45    49     0     0     0
SMALL
USER_CHARGES
(2R)-2-(6-chloro-4H-1,3-benzodioxin-8-yl)-3-phenyl-1,2-dihydroquinazolin-4-one
@<TRIPOS>ATOM
      1 C1          2.5916    8.3175    0.3205 C.ar      1 <0>        -0.1196
      2 C2          1.8105    7.7845   -0.6884 C.ar      1 <0>        -0.1027
      3 C3          1.7416    6.4159   -0.8606 C.ar      1 <0>        -0.1074
      4 C4          2.4579    5.5747   -0.0189 C.ar      1 <0>         0.1378
      5 C5          3.2370    6.1131    0.9971 C.ar      1 <0>        -0.1278
      6 C6          3.3064    7.4828    1.1600 C.ar      1 <0>        -0.1045
      7 N1          2.3904    4.1884   -0.1905 N.am      1 <0>        -0.5785
      8 C7          3.6209    3.4317   -0.4233 C.3       1 <0>         0.4407
      9 H1          4.4494    3.9644    0.0664 H         1 <0>         0.1189
     10 N2          3.5162    2.0950    0.1731 N.pl3     1 <0>        -0.7425
     11 C8          2.3346    1.3803    0.0112 C.ar      1 <0>         0.2499
     12 C9          2.3145   -0.0042    0.0079 C.ar      1 <0>        -0.1877
     13 C10         1.1135   -0.6708   -0.1406 C.ar      1 <0>        -0.0500
     14 C11        -0.0708    0.0349   -0.2842 C.ar      1 <0>        -0.1769
     15 C12        -0.0679    1.4143   -0.2863 C.ar      1 <0>        -0.0166
     16 C13         1.1362    2.0995   -0.1433 C.ar      1 <0>        -0.2075
     17 C14         1.1928    3.5718   -0.1382 C.2       1 <0>         0.5754
     18 O1          0.1682    4.2249   -0.0876 O.2       1 <0>        -0.5153
     19 C15         3.8485    3.2996   -1.9071 C.ar      1 <0>        -0.1409
     20 C16         3.2968    4.2217   -2.7752 C.ar      1 <0>        -0.0582
     21 C17         3.5052    4.1007   -4.1375 C.ar      1 <0>        -0.0645
     22 C18         4.2645    3.0554   -4.6323 C.ar      1 <0>        -0.0566
     23 C19         4.8173    2.1301   -3.7671 C.ar      1 <0>        -0.1945
     24 C20         4.6171    2.2547   -2.4010 C.ar      1 <0>         0.1726
     25 O2          5.1565    1.3521   -1.5385 O.3       1 <0>        -0.3155
     26 C21         5.6130    0.1163   -2.0960 C.3       1 <0>         0.2165
     27 O3          6.3994    0.4022   -3.2588 O.3       1 <0>        -0.3803
     28 C22         5.6393    0.9922   -4.3177 C.3       1 <0>         0.1019
     29 Cl1         2.8127    5.2613   -5.2271 Cl        1 <0>        -0.0589
     30 H2          2.6438    9.3881    0.4530 H         1 <0>         0.1267
     31 H3          1.2535    8.4391   -1.3423 H         1 <0>         0.1287
     32 H4          1.1317    6.0002   -1.6490 H         1 <0>         0.1259
     33 H5          3.7916    5.4616    1.6561 H         1 <0>         0.1244
     34 H6          3.9157    7.9023    1.9468 H         1 <0>         0.1284
     35 H7          4.3633    1.6760    0.7359 H         1 <0>         0.4420
     36 H8          3.2334   -0.5603    0.1213 H         1 <0>         0.1278
     37 H9          1.0974   -1.7507   -0.1453 H         1 <0>         0.1273
     38 H10        -1.0029   -0.4992   -0.3956 H         1 <0>         0.1278
     39 H11        -0.9929    1.9595   -0.4025 H         1 <0>         0.1340
     40 H12         2.7024    5.0371   -2.3903 H         1 <0>         0.1469
     41 H13         4.4253    2.9621   -5.6962 H         1 <0>         0.1420
     42 H14         6.2236   -0.4177   -1.3530 H         1 <0>         0.1469
     43 H15         4.7472   -0.5032   -2.3726 H         1 <0>         0.0659
     44 H16         4.9715    0.2365   -4.7569 H         1 <0>         0.0779
     45 H17         6.3211    1.3735   -5.0921 H         1 <0>         0.1202
@<TRIPOS>BOND
     1    1    6 ar
     2    1    2 ar
     3    1   30 1
     4    2    3 ar
     5    2   31 1
     6    3    4 ar
     7    3   32 1
     8    4    5 ar
     9    4    7 1
    10    5    6 ar
    11    5   33 1
    12    6   34 1
    13    7   17 am
    14    7    8 1
    15    8    9 1
    16    8   10 1
    17    8   19 1
    18   10   11 1
    19   10   35 1
    20   11   16 ar
    21   11   12 ar
    22   12   13 ar
    23   12   36 1
    24   13   14 ar
    25   13   37 1
    26   14   15 ar
    27   14   38 1
    28   15   16 ar
    29   15   39 1
    30   16   17 1
    31   17   18 2
    32   19   24 ar
    33   19   20 ar
    34   20   21 ar
    35   20   40 1
    36   21   22 ar
    37   21   29 1
    38   22   23 ar
    39   22   41 1
    40   23   28 1
    41   23   24 ar
    42   24   25 1
    43   25   26 1
    44   26   27 1
    45   26   42 1
    46   26   43 1
    47   27   28 1
    48   28   44 1
    49   28   45 1
@<TRIPOS>MOLECULE
ZINC35326722
   41    44     0     0     0
SMALL
USER_CHARGES

@<TRIPOS>ATOM
      1 C1         -0.0178    1.4608    0.0101 C.3       1 <0>         0.0617
      2 N1          0.0021   -0.0041    0.0020 N.am      1 <0>        -0.5258
      3 C2         -1.1927   -0.6660    0.0043 C.2       1 <0>         0.1843
      4 C3         -1.2451   -2.0136   -0.0027 C.2       1 <0>        -0.2803
      5 C4          0.0681   -2.7696   -0.0129 C.3       1 <0>         0.2566
      6 H1          0.0821   -3.4071   -0.8969 H         1 <0>         0.0972
      7 N2          1.3011   -1.9643   -0.0142 N.am      1 <0>        -0.7091
      8 C5          1.1908   -0.6211   -0.0126 C.2       1 <0>         0.7111
      9 O1          2.2029    0.0522   -0.0191 O.2       1 <0>        -0.5515
     10 C6          0.0991   -3.6635    1.2000 C.ar      1 <0>        -0.1052
     11 C7          0.4225   -3.1383    2.4372 C.ar      1 <0>        -0.0863
     12 C8          0.4510   -3.9576    3.5500 C.ar      1 <0>        -0.1127
     13 C9          0.1559   -5.3035    3.4255 C.ar      1 <0>        -0.0271
     14 C10        -0.1676   -5.8285    2.1871 C.ar      1 <0>        -0.1085
     15 C11        -0.2014   -5.0071    1.0760 C.ar      1 <0>        -0.0721
     16 Cl1         0.1922   -6.3333    4.8227 Cl        1 <0>        -0.0672
     17 C12        -2.5847   -2.4521    0.0015 C.2       1 <0>         0.5808
     18 O2         -2.9262   -3.6208   -0.0025 O.2       1 <0>        -0.4994
     19 N3         -3.4369   -1.4112    0.0114 N.am      1 <0>        -0.5591
     20 C13        -2.6261   -0.1844    0.0141 C.3       1 <0>         0.1366
     21 C14        -4.8340   -1.4825    0.0175 C.ar      1 <0>         0.1855
     22 C15        -5.5901   -0.3175    0.0214 C.ar      1 <0>        -0.1484
     23 C16        -6.9692   -0.3908    0.0275 C.ar      1 <0>        -0.0789
     24 C17        -7.5978   -1.6236    0.0297 C.ar      1 <0>        -0.0593
     25 C18        -6.8469   -2.7860    0.0263 C.ar      1 <0>        -0.0769
     26 C19        -5.4675   -2.7184    0.0140 C.ar      1 <0>        -0.1381
     27 Cl2        -9.3315   -1.7121    0.0374 Cl        1 <0>        -0.0672
     28 H2          1.0048    1.8381    0.0023 H         1 <0>         0.1103
     29 H3         -0.5450    1.8219   -0.8730 H         1 <0>         0.0793
     30 H4         -0.5280    1.8123    0.9069 H         1 <0>         0.0791
     31 H5          2.1723   -2.3907   -0.0205 H         1 <0>         0.4377
     32 H6          0.6532   -2.0877    2.5342 H         1 <0>         0.1220
     33 H7          0.7040   -3.5472    4.5165 H         1 <0>         0.1335
     34 H8         -0.3978   -6.8792    2.0892 H         1 <0>         0.1366
     35 H9         -0.4586   -5.4159    0.1100 H         1 <0>         0.1366
     36 H10        -2.8240    0.3989    0.9133 H         1 <0>         0.1220
     37 H11        -2.8329    0.4087   -0.8768 H         1 <0>         0.1227
     38 H12        -5.1000    0.6449    0.0200 H         1 <0>         0.1352
     39 H13        -7.5576    0.5149    0.0309 H         1 <0>         0.1400
     40 H14        -7.3400   -3.7469    0.0285 H         1 <0>         0.1404
     41 H15        -4.8820   -3.6259    0.0062 H         1 <0>         0.1640
@<TRIPOS>BOND
     1    1    2 1
     2    1   28 1
     3    1   29 1
     4    1   30 1
     5    2    8 am
     6    2    3 1
     7    3   20 1
     8    3    4 2
     9    4    5 1
    10    4   17 1
    11    5    6 1
    12    5    7 1
    13    5   10 1
    14    7    8 am
    15    7   31 1
    16    8    9 2
    17   10   15 ar
    18   10   11 ar
    19   11   12 ar
    20   11   32 1
    21   12   13 ar
    22   12   33 1
    23   13   14 ar
    24   13   16 1
    25   14   15 ar
    26   14   34 1
    27   15   35 1
    28   17   18 2
    29   17   19 am
    30   19   20 1
    31   19   21 1
    32   20   36 1
    33   20   37 1
    34   21   26 ar
    35   21   22 ar
    36   22   23 ar
    37   22   38 1
    38   23   24 ar
    39   23   39 1
    40   24   25 ar
    41   24   27 1
    42   25   26 ar
    43   25   40 1
    44   26   41 1
@<TRIPOS>MOLECULE
ZINC39864946
   39    42     0     0     0
SMALL
USER_CHARGES

@<TRIPOS>ATOM
      1 C1          0.0251    1.3308    0.6680 C.ar      1 <0>        -0.1035
      2 C2          0.4515    0.3571    1.5524 C.ar      1 <0>        -0.1083
      3 C3          1.6440   -0.3039    1.3319 C.ar      1 <0>        -0.0902
      4 C4          2.4150    0.0104    0.2206 C.ar      1 <0>         0.1061
      5 C5          1.9842    0.9887   -0.6656 C.ar      1 <0>        -0.0914
      6 C6          0.7908    1.6460   -0.4396 C.ar      1 <0>        -0.1085
      7 N1          3.6253   -0.6579   -0.0056 N.am      1 <0>        -0.4926
      8 C7          4.7622    0.0167    0.0278 C.2       1 <0>         0.5567
      9 O1          4.7856    1.2128    0.2522 O.2       1 <0>        -0.4625
     10 C8          6.0003   -0.7456   -0.2185 C.2       1 <0>        -0.2513
     11 C9          7.2875   -0.3136   -0.2426 C.2       1 <0>         0.0874
     12 C10         8.3851   -1.2828   -0.3443 C.ar      1 <0>        -0.1232
     13 C11         8.2289   -2.5796    0.1593 C.ar      1 <0>        -0.0757
     14 C12         9.2638   -3.4835    0.0601 C.ar      1 <0>        -0.1250
     15 C13        10.4592   -3.1154   -0.5359 C.ar      1 <0>        -0.0777
     16 C14        10.6278   -1.8388   -1.0374 C.ar      1 <0>        -0.1486
     17 C15         9.5971   -0.9169   -0.9526 C.ar      1 <0>         0.1453
     18 O2          9.7597    0.3355   -1.4500 O.3       1 <0>        -0.4924
     19 S1          5.3517   -2.3907   -0.4756 S.3       1 <0>         0.0912
     20 C16         3.6205   -2.0136   -0.2555 C.2       1 <0>         0.4139
     21 N2          2.5898   -2.8311   -0.3181 N.2       1 <0>        -0.4240
     22 C17         2.7839   -4.1498   -0.5782 C.2       1 <0>         0.2712
     23 N3          3.9182   -4.8100   -0.7912 N.2       1 <0>        -0.5353
     24 C18         3.9157   -6.1040   -1.0310 C.2       1 <0>         0.0444
     25 C19         2.7433   -6.7846   -1.0636 C.2       1 <0>        -0.2139
     26 S2          1.5837   -5.4676   -0.7186 S.3       1 <0>         0.0850
     27 H1         -0.9099    1.8431    0.8402 H         1 <0>         0.1309
     28 H2         -0.1485    0.1133    2.4167 H         1 <0>         0.1330
     29 H3          1.9766   -1.0640    2.0231 H         1 <0>         0.1257
     30 H4          2.5820    1.2355   -1.5306 H         1 <0>         0.1253
     31 H5          0.4550    2.4067   -1.1287 H         1 <0>         0.1330
     32 H6          7.5035    0.7431   -0.1870 H         1 <0>         0.1594
     33 H7          7.2989   -2.8708    0.6249 H         1 <0>         0.1390
     34 H8          9.1428   -4.4837    0.4491 H         1 <0>         0.1345
     35 H9         11.2649   -3.8309   -0.6086 H         1 <0>         0.1342
     36 H10        11.5630   -1.5606   -1.5003 H         1 <0>         0.1373
     37 H11        10.1177    0.9684   -0.8125 H         1 <0>         0.3974
     38 H12         4.8470   -6.6235   -1.2021 H         1 <0>         0.1707
     39 H13         2.5605   -7.8337   -1.2435 H         1 <0>         0.2022
@<TRIPOS>BOND
     1    1    6 ar
     2    1    2 ar
     3    1   27 1
     4    2    3 ar
     5    2   28 1
     6    3    4 ar
     7    3   29 1
     8    4    5 ar
     9    4    7 1
    10    5    6 ar
    11    5   30 1
    12    6   31 1
    13    7   20 1
    14    7    8 am
    15    8    9 2
    16    8   10 1
    17   10   11 2
    18   10   19 1
    19   11   12 1
    20   11   32 1
    21   12   17 ar
    22   12   13 ar
    23   13   14 ar
    24   13   33 1
    25   14   15 ar
    26   14   34 1
    27   15   16 ar
    28   15   35 1
    29   16   17 ar
    30   16   36 1
    31   17   18 1
    32   18   37 1
    33   19   20 1
    34   20   21 2
    35   21   22 1
    36   22   26 1
    37   22   23 2
    38   23   24 1
    39   24   25 2
    40   24   38 1
    41   25   26 1
    42   25   39 1
@<TRIPOS>MOLECULE
ZINC02974704
   48    51     0     0     0
SMALL
USER_CHARGES
7-(m-tolyl)-9-phenyl-N-propyl-3,5,7-triazabicyclo[4.3.0]nona-2,4,8,10-tetraen-2-amine
@<TRIPOS>ATOM
      1 C1         -1.9575   13.2076   -2.0093 C.3       1 <0>        -0.1485
      2 C2         -1.2447   12.1234   -1.1986 C.3       1 <0>        -0.1385
      3 C3         -1.6610   10.7444   -1.7142 C.3       1 <0>         0.1243
      4 N1         -0.9784    9.7063   -0.9379 N.pl3     1 <0>        -0.7064
      5 C4         -1.1992    8.3709   -1.2241 C.ar      1 <0>         0.4910
      6 C5         -0.5551    7.3637   -0.4930 C.ar      1 <0>        -0.2496
      7 C6          0.3998    7.3382    0.6227 C.2       1 <0>        -0.0953
      8 C7          0.6463    6.0320    0.8906 C.2       1 <0>         0.0602
      9 N2         -0.0691    5.2430    0.0295 N.pl3     1 <0>        -0.4084
     10 C8         -0.8112    6.0214   -0.8212 C.ar      1 <0>         0.3512
     11 N3         -1.6577    5.7601   -1.8163 N.ar      1 <0>        -0.5651
     12 C9         -2.2406    6.7370   -2.4766 C.ar      1 <0>         0.3625
     13 N4         -2.0278    8.0110   -2.2004 N.ar      1 <0>        -0.5952
     14 C10        -0.0501    3.8423    0.0227 C.ar      1 <0>         0.1254
     15 C11        -1.2424    3.1302    0.0307 C.ar      1 <0>        -0.1049
     16 C12        -1.2204    1.7495    0.0174 C.ar      1 <0>        -0.0981
     17 C13        -0.0126    1.0758    0.0080 C.ar      1 <0>        -0.1154
     18 C14         1.1761    1.7819    0.0004 C.ar      1 <0>        -0.0704
     19 C15         1.1607    3.1632    0.0075 C.ar      1 <0>        -0.1197
     20 C16         2.4899    1.0439   -0.0161 C.3       1 <0>        -0.1163
     21 C17         0.9763    8.5106    1.3229 C.ar      1 <0>        -0.0107
     22 C18         1.5516    9.5491    0.5918 C.ar      1 <0>        -0.1261
     23 C19         2.0820   10.6405    1.2489 C.ar      1 <0>        -0.1122
     24 C20         2.0535   10.7003    2.6307 C.ar      1 <0>        -0.1197
     25 C21         1.4891    9.6703    3.3616 C.ar      1 <0>        -0.1112
     26 C22         0.9505    8.5765    2.7153 C.ar      1 <0>        -0.1081
     27 H1         -1.6835   13.1147   -3.0602 H         1 <0>         0.0588
     28 H2         -3.0360   13.0905   -1.9033 H         1 <0>         0.0587
     29 H3         -1.6610   14.1901   -1.6419 H         1 <0>         0.0605
     30 H4         -1.5187   12.2163   -0.1477 H         1 <0>         0.0674
     31 H5         -0.1662   12.2406   -1.3046 H         1 <0>         0.0676
     32 H6         -1.3869   10.6515   -2.7651 H         1 <0>         0.0702
     33 H7         -2.7395   10.6273   -1.6082 H         1 <0>         0.0694
     34 H8         -0.3716    9.9552   -0.2233 H         1 <0>         0.4122
     35 H9          1.3077    5.6691    1.6635 H         1 <0>         0.1811
     36 H10        -2.9208    6.4872   -3.2775 H         1 <0>         0.2002
     37 H11        -2.1858    3.6557    0.0426 H         1 <0>         0.1288
     38 H12        -2.1473    1.1952    0.0184 H         1 <0>         0.1328
     39 H13         0.0021   -0.0041    0.0020 H         1 <0>         0.1295
     40 H14         2.0895    3.7142    0.0009 H         1 <0>         0.1286
     41 H15         2.7969    0.8715   -1.0477 H         1 <0>         0.0745
     42 H16         3.2475    1.6391    0.4937 H         1 <0>         0.0684
     43 H17         2.3757    0.0873    0.4937 H         1 <0>         0.0713
     44 H18         1.5781    9.5015   -0.4868 H         1 <0>         0.1234
     45 H19         2.5243   11.4474    0.6835 H         1 <0>         0.1258
     46 H20         2.4733   11.5547    3.1408 H         1 <0>         0.1245
     47 H21         1.4697    9.7225    4.4402 H         1 <0>         0.1261
     48 H22         0.5095    7.7733    3.2869 H         1 <0>         0.1251
@<TRIPOS>BOND
     1    1    2 1
     2    1   27 1
     3    1   28 1
     4    1   29 1
     5    2    3 1
     6    2   30 1
     7    2   31 1
     8    3    4 1
     9    3   32 1
    10    3   33 1
    11    4    5 1
    12    4   34 1
    13    5   13 ar
    14    5    6 ar
    15    6   10 ar
    16    6    7 1
    17    7    8 2
    18    7   21 1
    19    8    9 1
    20    8   35 1
    21    9   10 1
    22    9   14 1
    23   10   11 ar
    24   11   12 ar
    25   12   13 ar
    26   12   36 1
    27   14   19 ar
    28   14   15 ar
    29   15   16 ar
    30   15   37 1
    31   16   17 ar
    32   16   38 1
    33   17   18 ar
    34   17   39 1
    35   18   19 ar
    36   18   20 1
    37   19   40 1
    38   20   41 1
    39   20   42 1
    40   20   43 1
    41   21   26 ar
    42   21   22 ar
    43   22   23 ar
    44   22   44 1
    45   23   24 ar
    46   23   45 1
    47   24   25 ar
    48   24   46 1
    49   25   26 ar
    50   25   47 1
    51   26   48 1
@<TRIPOS>MOLECULE
ZINC05607414
   46    48     0     0     0
SMALL
USER_CHARGES
4-cyclohexylamino-2-methylsulfanyl-6-(p-tolyl)pyrimidine-5-carbonitrile
@<TRIPOS>ATOM
      1 C1         -5.0123    4.1852    0.0494 C.3       1 <0>        -0.1208
      2 C2         -3.7044    3.4367    0.0387 C.ar      1 <0>        -0.0594
      3 C3         -3.5980    2.2456   -0.6568 C.ar      1 <0>        -0.1269
      4 C4         -2.4032    1.5554   -0.6699 C.ar      1 <0>        -0.0576
      5 C5         -1.3014    2.0613    0.0195 C.ar      1 <0>        -0.0784
      6 C6         -1.4164    3.2600    0.7231 C.ar      1 <0>        -0.0821
      7 C7         -2.6151    3.9434    0.7248 C.ar      1 <0>        -0.1227
      8 C8         -0.0160    1.3254    0.0093 C.ar      1 <0>         0.3231
      9 C9          1.2095    2.0228    0.0014 C.ar      1 <0>        -0.2153
     10 C10         2.4019    1.2686   -0.0136 C.ar      1 <0>         0.5036
     11 N1          2.3227   -0.0566   -0.0200 N.ar      1 <0>        -0.5809
     12 C11         1.1477   -0.6711   -0.0125 C.ar      1 <0>         0.3641
     13 N2          0.0021   -0.0041    0.0020 N.ar      1 <0>        -0.5328
     14 S1          1.1077   -2.4326   -0.0216 S.3       1 <0>         0.0318
     15 C12         2.8825   -2.7873   -0.0404 C.3       1 <0>        -0.1499
     16 N3          3.6302    1.8982   -0.0220 N.pl3     1 <0>        -0.6929
     17 C13         4.8606    1.1033   -0.0380 C.3       1 <0>         0.1508
     18 C14         5.2345    0.7132    1.3934 C.3       1 <0>        -0.1291
     19 C15         6.5195   -0.1170    1.3767 C.3       1 <0>        -0.1155
     20 C16         7.6515    0.7076    0.7606 C.3       1 <0>        -0.1240
     21 C17         7.2776    1.0977   -0.6708 C.3       1 <0>        -0.1140
     22 C18         5.9926    1.9279   -0.6540 C.3       1 <0>        -0.1305
     23 C19         1.2429    3.4543    0.0083 C.1       1 <0>         0.2649
     24 N4          1.2694    4.5900    0.0138 N.1       1 <0>        -0.4099
     25 H1         -5.6163    3.8493    0.8922 H         1 <0>         0.0762
     26 H2         -4.8187    5.2537    0.1441 H         1 <0>         0.0694
     27 H3         -5.5479    3.9941   -0.8805 H         1 <0>         0.0706
     28 H4         -4.4519    1.8549   -1.1902 H         1 <0>         0.1313
     29 H5         -2.3216    0.6252   -1.2126 H         1 <0>         0.1359
     30 H6         -0.5679    3.6544    1.2624 H         1 <0>         0.1228
     31 H7         -2.7043    4.8738    1.2659 H         1 <0>         0.1288
     32 H8          3.3309   -2.3498   -0.9324 H         1 <0>         0.0921
     33 H9          3.3479   -2.3594    0.8475 H         1 <0>         0.0929
     34 H10         3.0373   -3.8662   -0.0477 H         1 <0>         0.1087
     35 H11         3.6786    2.8670   -0.0172 H         1 <0>         0.4122
     36 H12         4.7034    0.2022   -0.6308 H         1 <0>         0.0965
     37 H13         5.3917    1.6142    1.9863 H         1 <0>         0.0631
     38 H14         4.4281    0.1257    1.8323 H         1 <0>         0.0686
     39 H15         6.3623   -1.0181    0.7839 H         1 <0>         0.0658
     40 H16         6.7859   -0.3949    2.3965 H         1 <0>         0.0663
     41 H17         8.5670    0.1162    0.7487 H         1 <0>         0.0660
     42 H18         7.8088    1.6087    1.3535 H         1 <0>         0.0629
     43 H19         7.1204    0.1967   -1.2636 H         1 <0>         0.0666
     44 H20         8.0841    1.6852   -1.1097 H         1 <0>         0.0691
     45 H21         5.7262    2.2058   -1.6738 H         1 <0>         0.0700
     46 H22         6.1498    2.8290   -0.0612 H         1 <0>         0.0686
@<TRIPOS>BOND
     1    1    2 1
     2    1   25 1
     3    1   26 1
     4    1   27 1
     5    2    7 ar
     6    2    3 ar
     7    3    4 ar
     8    3   28 1
     9    4    5 ar
    10    4   29 1
    11    5    6 ar
    12    5    8 1
    13    6    7 ar
    14    6   30 1
    15    7   31 1
    16    8   13 ar
    17    8    9 ar
    18    9   10 ar
    19    9   23 1
    20   10   11 ar
    21   10   16 1
    22   11   12 ar
    23   12   13 ar
    24   12   14 1
    25   14   15 1
    26   15   32 1
    27   15   33 1
    28   15   34 1
    29   16   17 1
    30   16   35 1
    31   17   22 1
    32   17   18 1
    33   17   36 1
    34   18   19 1
    35   18   37 1
    36   18   38 1
    37   19   20 1
    38   19   39 1
    39   19   40 1
    40   20   21 1
    41   20   41 1
    42   20   42 1
    43   21   22 1
    44   21   43 1
    45   21   44 1
    46   22   45 1
    47   22   46 1
    48   23   24 3
@<TRIPOS>MOLECULE
ZINC05738543
   43    46     0     0     0
SMALL
USER_CHARGES
1-phenyl-3-(4-phenylphenyl)pyrazole-4-carbaldehyde oxime
@<TRIPOS>ATOM
      1 C1         -4.8922   -0.4026    0.0435 C.ar      1 <0>        -0.1182
      2 C2         -4.2312   -0.1541    1.2329 C.ar      1 <0>        -0.1180
      3 C3         -3.0424    0.5468    1.2314 C.ar      1 <0>        -0.1098
      4 C4         -2.5080    1.0046    0.0282 C.ar      1 <0>        -0.0476
      5 C5         -3.1812    0.7559   -1.1667 C.ar      1 <0>        -0.1094
      6 C6         -4.3668    0.0498   -1.1535 C.ar      1 <0>        -0.1182
      7 C7         -1.2311    1.7589    0.0201 C.ar      1 <0>        -0.0300
      8 C8         -0.6989    2.2157   -1.1853 C.ar      1 <0>        -0.1174
      9 C9          0.4840    2.9211   -1.1926 C.ar      1 <0>        -0.0470
     10 C10         1.1526    3.1741    0.0056 C.ar      1 <0>        -0.0194
     11 C11         0.6226    2.7124    1.2108 C.ar      1 <0>        -0.0821
     12 C12        -0.5603    2.0070    1.2174 C.ar      1 <0>        -0.1180
     13 C13         2.4249    3.9333   -0.0019 C.2       1 <0>         0.1596
     14 C14         2.7058    5.1561   -0.7595 C.2       1 <0>        -0.1876
     15 C15         3.9940    5.5104   -0.4668 C.2       1 <0>         0.0978
     16 N1          4.4937    4.5973    0.3892 N.pl3     1 <0>        -0.3139
     17 N2          3.5183    3.6344    0.6659 N.2       1 <0>        -0.2706
     18 C16         5.7900    4.6108    0.9199 C.ar      1 <0>         0.1534
     19 C17         6.6764    5.6194    0.5656 C.ar      1 <0>        -0.1399
     20 C18         7.9522    5.6325    1.0943 C.ar      1 <0>        -0.0918
     21 C19         8.3509    4.6367    1.9670 C.ar      1 <0>        -0.1257
     22 C20         7.4721    3.6283    2.3180 C.ar      1 <0>        -0.0944
     23 C21         6.1932    3.6125    1.7969 C.ar      1 <0>        -0.1164
     24 C22         1.7795    5.8673   -1.6587 C.2       1 <0>         0.1666
     25 N3          0.5508    5.4737   -1.7653 N.2       1 <0>        -0.3174
     26 O1         -0.3391    6.1570   -2.6292 O.3       1 <0>        -0.4411
     27 H1         -5.8223   -0.9515    0.0494 H         1 <0>         0.1229
     28 H2         -4.6464   -0.5091    2.1646 H         1 <0>         0.1244
     29 H3         -2.5273    0.7405    2.1607 H         1 <0>         0.1257
     30 H4         -2.7738    1.1119   -2.1014 H         1 <0>         0.1258
     31 H5         -4.8874   -0.1468   -2.0792 H         1 <0>         0.1245
     32 H6         -1.2166    2.0202   -2.1127 H         1 <0>         0.1277
     33 H7          0.8938    3.2787   -2.1256 H         1 <0>         0.1258
     34 H8          1.1401    2.9077    2.1383 H         1 <0>         0.1260
     35 H9         -0.9706    1.6495    2.1503 H         1 <0>         0.1284
     36 H10         4.5200    6.3694   -0.8565 H         1 <0>         0.1908
     37 H11         6.3670    6.3949   -0.1194 H         1 <0>         0.1317
     38 H12         8.6409    6.4187    0.8220 H         1 <0>         0.1350
     39 H13         9.3506    4.6467    2.3756 H         1 <0>         0.1307
     40 H14         7.7864    2.8522    3.0001 H         1 <0>         0.1340
     41 H15         5.5074    2.8247    2.0714 H         1 <0>         0.1390
     42 H16         2.1322    6.7325   -2.2392 H         1 <0>         0.1259
     43 H17        -1.3831    5.8226   -2.7198 H         1 <0>         0.4382
@<TRIPOS>BOND
     1    1    6 ar
     2    1    2 ar
     3    1   27 1
     4    2    3 ar
     5    2   28 1
     6    3    4 ar
     7    3   29 1
     8    4    5 ar
     9    4    7 1
    10    5    6 ar
    11    5   30 1
    12    6   31 1
    13    7   12 ar
    14    7    8 ar
    15    8    9 ar
    16    8   32 1
    17    9   10 ar
    18    9   33 1
    19   10   11 ar
    20   10   13 1
    21   11   12 ar
    22   11   34 1
    23   12   35 1
    24   13   17 2
    25   13   14 1
    26   14   15 2
    27   14   24 1
    28   15   16 1
    29   15   36 1
    30   16   17 1
    31   16   18 1
    32   18   23 ar
    33   18   19 ar
    34   19   20 ar
    35   19   37 1
    36   20   21 ar
    37   20   38 1
    38   21   22 ar
    39   21   39 1
    40   22   23 ar
    41   22   40 1
    42   23   41 1
    43   24   25 2
    44   24   42 1
    45   25   26 1
    46   26   43 1
@<TRIPOS>MOLECULE
ZINC34981041
   38    39     0     0     0
SMALL
USER_CHARGES

@<TRIPOS>ATOM
      1 C1          0.1514    1.5866    0.1215 C.3       1 <0>        -0.1546
      2 C2          0.0085    0.0665    0.0226 C.3       1 <0>        -0.1261
      3 C3          0.5866   -0.4145   -1.3098 C.3       1 <0>         0.1808
      4 H1          0.1086    0.1234   -2.1285 H         1 <0>         0.0953
      5 C4          0.3325   -1.8920   -1.4636 C.ar      1 <0>        -0.1149
      6 C5          1.1445   -2.8040   -0.8156 C.ar      1 <0>        -0.0961
      7 C6          0.9114   -4.1592   -0.9566 C.ar      1 <0>        -0.1189
      8 C7         -0.1338   -4.6025   -1.7452 C.ar      1 <0>        -0.0797
      9 C8         -0.9463   -3.6904   -2.3924 C.ar      1 <0>        -0.1183
     10 C9         -0.7159   -2.3351   -2.2480 C.ar      1 <0>        -0.1063
     11 C10        -0.3872   -6.0799   -1.8997 C.3       1 <0>        -0.1186
     12 N1          2.0293   -0.1618   -1.3359 N.pl3     1 <0>        -0.7028
     13 C11         2.6770    0.0651   -2.5531 C.ar      1 <0>         0.3024
     14 C12         1.9835   -0.0799   -3.7480 C.ar      1 <0>        -0.1929
     15 C13         2.6261    0.1449   -4.9493 C.ar      1 <0>         0.0093
     16 C14         3.9598    0.5138   -4.9637 C.ar      1 <0>        -0.1563
     17 C15         4.6531    0.6584   -3.7754 C.ar      1 <0>         0.0212
     18 C16         4.0137    0.4414   -2.5704 C.ar      1 <0>        -0.1298
     19 N2          4.7543    0.6028   -1.2992 N.pl3     1 <0>         0.0580
     20 O1          5.8846    1.0319   -1.3084 O.2       1 <0>        -0.1472
     21 O2          4.2291    0.3056   -0.2516 O.3       1 <0>        -0.1975
     22 Br1         4.8365    0.8201   -6.6110 Br        1 <0>        -0.0250
     23 H2          1.2084    1.8508    0.1537 H         1 <0>         0.0565
     24 H3         -0.3133    2.0525   -0.7474 H         1 <0>         0.0559
     25 H4         -0.3391    1.9393    1.0287 H         1 <0>         0.0628
     26 H5          0.5494   -0.4035    0.8441 H         1 <0>         0.0747
     27 H6         -1.0458   -0.2039    0.0800 H         1 <0>         0.0853
     28 H7          1.9611   -2.4577   -0.1994 H         1 <0>         0.1192
     29 H8          1.5462   -4.8718   -0.4509 H         1 <0>         0.1226
     30 H9         -1.7627   -4.0367   -3.0088 H         1 <0>         0.1242
     31 H10        -1.3530   -1.6225   -2.7507 H         1 <0>         0.1234
     32 H11        -1.0730   -6.4143   -1.1212 H         1 <0>         0.0727
     33 H12        -0.8266   -6.2728   -2.8783 H         1 <0>         0.0677
     34 H13         0.5547   -6.6213   -1.8112 H         1 <0>         0.0672
     35 H14         2.5350   -0.1519   -0.5082 H         1 <0>         0.4220
     36 H15         0.9428   -0.3685   -3.7375 H         1 <0>         0.1526
     37 H16         2.0875    0.0323   -5.8786 H         1 <0>         0.1505
     38 H17         5.6940    0.9461   -3.7897 H         1 <0>         0.1607
@<TRIPOS>BOND
     1    1    2 1
     2    1   23 1
     3    1   24 1
     4    1   25 1
     5    2    3 1
     6    2   26 1
     7    2   27 1
     8    3    4 1
     9    3    5 1
    10    3   12 1
    11    5   10 ar
    12    5    6 ar
    13    6    7 ar
    14    6   28 1
    15    7    8 ar
    16    7   29 1
    17    8    9 ar
    18    8   11 1
    19    9   10 ar
    20    9   30 1
    21   10   31 1
    22   11   32 1
    23   11   33 1
    24   11   34 1
    25   12   13 1
    26   12   35 1
    27   13   18 ar
    28   13   14 ar
    29   14   15 ar
    30   14   36 1
    31   15   16 ar
    32   15   37 1
    33   16   17 ar
    34   16   22 1
    35   17   18 ar
    36   17   38 1
    37   18   19 1
    38   19   20 2
    39   19   21 1
@<TRIPOS>MOLECULE
ZINC04699674
   32    33     0     0     0
SMALL
USER_CHARGES

@<TRIPOS>ATOM
      1 C1         -0.0187    1.5258    0.0104 C.3       1 <0>        -0.1544
      2 C2          0.0021   -0.0041    0.0020 C.3       1 <0>         0.0501
      3 O1          0.6709   -0.4649   -1.1737 O.3       1 <0>        -0.3089
      4 C3          0.7767   -1.8090   -1.3360 C.ar      1 <0>         0.1725
      5 C4          0.2405   -2.6661   -0.3826 C.ar      1 <0>        -0.2189
      6 C5          0.3453   -4.0300   -0.5428 C.ar      1 <0>        -0.0032
      7 C6          0.9925   -4.5520   -1.6673 C.ar      1 <0>        -0.0038
      8 C7          1.5304   -3.6855   -2.6240 C.ar      1 <0>        -0.0443
      9 C8          1.4157   -2.3230   -2.4579 C.ar      1 <0>        -0.1611
     10 N1          1.0992   -5.9037   -1.8303 N.2       1 <0>        -0.1891
     11 N2          1.6966   -6.3830   -2.8683 N.2       1 <0>        -0.2201
     12 C9          1.8032   -7.7341   -3.0312 C.ar      1 <0>         0.0497
     13 C10         1.2614   -8.6020   -2.0785 C.ar      1 <0>        -0.0702
     14 C11         1.3723   -9.9661   -2.2495 C.ar      1 <0>        -0.0426
     15 C12         2.0189  -10.4807   -3.3623 C.ar      1 <0>        -0.0486
     16 C13         2.5588   -9.6331   -4.3115 C.ar      1 <0>        -0.1164
     17 C14         2.4518   -8.2594   -4.1581 C.ar      1 <0>         0.1963
     18 O2          2.9774   -7.4260   -5.0926 O.3       1 <0>        -0.4674
     19 Br1         3.4384  -10.3484   -5.8250 Br        1 <0>        -0.0089
     20 Cl1         0.6997  -11.0430   -1.0656 Cl        1 <0>        -0.0465
     21 H1          1.0039    1.9031    0.0027 H         1 <0>         0.0681
     22 H2         -0.5459    1.8868   -0.8726 H         1 <0>         0.0681
     23 H3         -0.5289    1.8773    0.9072 H         1 <0>         0.0817
     24 H4          0.5293   -0.3651    0.8851 H         1 <0>         0.0672
     25 H5         -1.0205   -0.3814    0.0098 H         1 <0>         0.0672
     26 H6         -0.2588   -2.2620    0.4857 H         1 <0>         0.1410
     27 H7         -0.0714   -4.6954    0.1989 H         1 <0>         0.1416
     28 H8          2.0314   -4.0840   -3.4939 H         1 <0>         0.1478
     29 H9          1.8269   -1.6530   -3.1984 H         1 <0>         0.1401
     30 H10         0.7572   -8.2049   -1.2099 H         1 <0>         0.1577
     31 H11         2.1016  -11.5502   -3.4884 H         1 <0>         0.1538
     32 H12         3.8968   -7.1772   -4.9252 H         1 <0>         0.4015
@<TRIPOS>BOND
     1    1    2 1
     2    1   21 1
     3    1   22 1
     4    1   23 1
     5    2    3 1
     6    2   24 1
     7    2   25 1
     8    3    4 1
     9    4    9 ar
    10    4    5 ar
    11    5    6 ar
    12    5   26 1
    13    6    7 ar
    14    6   27 1
    15    7    8 ar
    16    7   10 1
    17    8    9 ar
    18    8   28 1
    19    9   29 1
    20   10   11 2
    21   11   12 1
    22   12   17 ar
    23   12   13 ar
    24   13   14 ar
    25   13   30 1
    26   14   15 ar
    27   14   20 1
    28   15   16 ar
    29   15   31 1
    30   16   17 ar
    31   16   19 1
    32   17   18 1
    33   18   32 1
@<TRIPOS>MOLECULE
ZINC64657095
   39    42     0     0     0
SMALL
USER_CHARGES

@<TRIPOS>ATOM
      1 C1         -0.1716    1.6828   -0.1161 C.3       1 <0>        -0.1165
      2 C2         -1.3489    0.8760   -0.5999 C.ar      1 <0>        -0.1342
      3 C3         -1.2252    0.0711   -1.7258 C.ar      1 <0>         0.2083
      4 C4         -2.3130   -0.6715   -2.1681 C.ar      1 <0>        -0.1737
      5 C5         -3.5135   -0.6079   -1.4882 C.ar      1 <0>        -0.0656
      6 C6         -3.6342    0.1937   -0.3682 C.ar      1 <0>        -0.1484
      7 C7         -2.5512    0.9311    0.0789 C.ar      1 <0>         0.0067
      8 Cl1        -2.7058    1.9311    1.4896 Cl        1 <0>        -0.0596
      9 N1         -0.0103    0.0091   -2.4115 N.pl3     1 <0>        -0.6498
     10 C8          0.0864   -0.7235   -3.5916 C.2       1 <0>         0.1818
     11 C9          0.1826   -0.2132   -4.8747 C.2       1 <0>         0.1230
     12 N2          0.2560   -1.2461   -5.7285 N.2       1 <0>        -0.4411
     13 C10         0.2110   -2.3780   -5.0490 C.2       1 <0>         0.1720
     14 N3          0.1106   -2.0790   -3.7058 N.pl3     1 <0>        -0.3525
     15 C11         0.0543   -3.1044   -2.7966 C.2       1 <0>         0.0100
     16 C12         0.1011   -4.3814   -3.2259 C.2       1 <0>         0.0457
     17 N4          0.2022   -4.6734   -4.5267 N.2       1 <0>        -0.4591
     18 C13         0.2502   -3.7321   -5.4386 C.2       1 <0>         0.2008
     19 C14         0.2008    1.2225   -5.2416 C.ar      1 <0>        -0.0198
     20 C15        -0.5518    2.1413   -4.5108 C.ar      1 <0>        -0.0931
     21 C16        -0.5305    3.4769   -4.8568 C.ar      1 <0>        -0.1210
     22 C17         0.2355    3.9050   -5.9264 C.ar      1 <0>        -0.1079
     23 C18         0.9842    2.9982   -6.6551 C.ar      1 <0>        -0.1217
     24 C19         0.9750    1.6608   -6.3153 C.ar      1 <0>        -0.0838
     25 H1          0.4093    1.0902    0.5906 H         1 <0>         0.0741
     26 H2          0.4562    1.9543   -0.9648 H         1 <0>         0.0658
     27 H3         -0.5287    2.5876    0.3758 H         1 <0>         0.0801
     28 H4         -2.2200   -1.2978   -3.0431 H         1 <0>         0.1182
     29 H5         -4.3593   -1.1848   -1.8321 H         1 <0>         0.1337
     30 H6         -4.5742    0.2414    0.1615 H         1 <0>         0.1347
     31 H7          0.7663    0.4763   -2.0657 H         1 <0>         0.4188
     32 H8         -0.0267   -2.8896   -1.7412 H         1 <0>         0.1690
     33 H9          0.0564   -5.1843   -2.5050 H         1 <0>         0.1811
     34 H10         0.3331   -3.9934   -6.4832 H         1 <0>         0.1936
     35 H11        -1.1504    1.8081   -3.6759 H         1 <0>         0.1233
     36 H12        -1.1132    4.1893   -4.2918 H         1 <0>         0.1257
     37 H13         0.2487    4.9513   -6.1937 H         1 <0>         0.1248
     38 H14         1.5802    3.3383   -7.4890 H         1 <0>         0.1273
     39 H15         1.5631    0.9545   -6.8824 H         1 <0>         0.1291
@<TRIPOS>BOND
     1    1    2 1
     2    1   25 1
     3    1   26 1
     4    1   27 1
     5    2    7 ar
     6    2    3 ar
     7    3    4 ar
     8    3    9 1
     9    4    5 ar
    10    4   28 1
    11    5    6 ar
    12    5   29 1
    13    6    7 ar
    14    6   30 1
    15    7    8 1
    16    9   10 1
    17    9   31 1
    18   10   14 1
    19   10   11 2
    20   11   12 1
    21   11   19 1
    22   12   13 2
    23   13   18 1
    24   13   14 1
    25   14   15 1
    26   15   16 2
    27   15   32 1
    28   16   17 1
    29   16   33 1
    30   17   18 2
    31   18   34 1
    32   19   24 ar
    33   19   20 ar
    34   20   21 ar
    35   20   35 1
    36   21   22 ar
    37   21   36 1
    38   22   23 ar
    39   22   37 1
    40   23   24 ar
    41   23   38 1
    42   24   39 1
@<TRIPOS>MOLECULE
ZINC16928815
   42    44     0     0     0
SMALL
USER_CHARGES
3-[[(5Z)-3-allyl-5-[(2-hydroxyphenyl)methylene]-4-oxo-thiazolidin-2-ylidene]amino]benzoic acid
@<TRIPOS>ATOM
      1 C1         -8.8276    2.7593   -2.2809 C.2       1 <0>        -0.1543
      2 C2         -7.7892    3.3924   -1.7939 C.2       1 <0>        -0.1809
      3 C3         -7.4227    3.2326   -0.3410 C.3       1 <0>         0.1321
      4 N1         -6.0298    2.7912   -0.2344 N.am      1 <0>        -0.5355
      5 C4         -5.0627    3.6893   -0.1538 C.2       1 <0>         0.5580
      6 O1         -5.3004    4.8830   -0.1658 O.2       1 <0>        -0.4926
      7 C5         -3.6825    3.1789   -0.0491 C.2       1 <0>        -0.2086
      8 C6         -2.5152    3.8654    0.0459 C.2       1 <0>         0.0500
      9 C7         -1.2608    3.1481    0.3043 C.ar      1 <0>        -0.1101
     10 C8         -1.2865    1.8489    0.8250 C.ar      1 <0>        -0.0795
     11 C9         -0.1049    1.1843    1.0697 C.ar      1 <0>        -0.1228
     12 C10         1.1094    1.7914    0.7927 C.ar      1 <0>        -0.0838
     13 C11         1.1500    3.0712    0.2733 C.ar      1 <0>        -0.1498
     14 C12        -0.0270    3.7586    0.0255 C.ar      1 <0>         0.1368
     15 O2          0.0119    5.0161   -0.4839 O.3       1 <0>        -0.4939
     16 S1         -3.9599    1.4140   -0.0889 S.3       1 <0>        -0.0241
     17 C13        -5.7403    1.4441   -0.2196 C.2       1 <0>         0.3661
     18 N2         -6.5717    0.4288   -0.2910 N.2       1 <0>        -0.4300
     19 C14        -6.0913   -0.8524   -0.2608 C.ar      1 <0>         0.0611
     20 C15        -4.9804   -1.2026   -1.0335 C.ar      1 <0>        -0.1434
     21 C16        -4.4945   -2.4943   -1.0038 C.ar      1 <0>        -0.1217
     22 C17        -5.1011   -3.4492   -0.2118 C.ar      1 <0>        -0.0695
     23 C18        -6.2122   -3.1137    0.5658 C.ar      1 <0>        -0.1020
     24 C19        -6.7053   -1.8102    0.5450 C.ar      1 <0>        -0.0532
     25 C20        -6.8596   -4.1370    1.4125 C.2       1 <0>         0.4903
     26 O3         -7.8256   -3.8438    2.0880 O.co2     1 <0>        -0.6267
     27 H1         -9.4209    2.1229   -1.6411 H         1 <0>         0.1046
     28 H2         -9.0903    2.8738   -3.3222 H         1 <0>         0.1014
     29 H3         -7.1959    4.0288   -2.4337 H         1 <0>         0.1096
     30 H4         -8.0752    2.4905    0.1189 H         1 <0>         0.1047
     31 H5         -7.5413    4.1877    0.1708 H         1 <0>         0.1020
     32 H6         -2.5095    4.9393   -0.0687 H         1 <0>         0.1595
     33 H7         -2.2308    1.3701    1.0382 H         1 <0>         0.1434
     34 H8         -0.1252    0.1835    1.4752 H         1 <0>         0.1349
     35 H9          2.0304    1.2606    0.9838 H         1 <0>         0.1321
     36 H10         2.1010    3.5367    0.0604 H         1 <0>         0.1339
     37 H11         0.0022    5.0495   -1.4503 H         1 <0>         0.3950
     38 H12        -4.5013   -0.4609   -1.6555 H         1 <0>         0.1219
     39 H13        -3.6356   -2.7593   -1.6025 H         1 <0>         0.1235
     40 H14        -4.7153   -4.4578   -0.1932 H         1 <0>         0.1361
     41 H15        -7.5612   -1.5442    1.1476 H         1 <0>         0.1355
     42 O4         -6.3785   -5.3950    1.4353 O.co2     1 <0>        -0.7499
@<TRIPOS>BOND
     1    1    2 2
     2    1   27 1
     3    1   28 1
     4    2    3 1
     5    2   29 1
     6    3    4 1
     7    3   30 1
     8    3   31 1
     9    4   17 1
    10    4    5 am
    11    5    6 2
    12    5    7 1
    13    7    8 2
    14    7   16 1
    15    8    9 1
    16    8   32 1
    17    9   14 ar
    18    9   10 ar
    19   10   11 ar
    20   10   33 1
    21   11   12 ar
    22   11   34 1
    23   12   13 ar
    24   12   35 1
    25   13   14 ar
    26   13   36 1
    27   14   15 1
    28   15   37 1
    29   16   17 1
    30   17   18 2
    31   18   19 1
    32   19   24 ar
    33   19   20 ar
    34   20   21 ar
    35   20   38 1
    36   21   22 ar
    37   21   39 1
    38   22   23 ar
    39   22   40 1
    40   23   24 ar
    41   23   25 1
    42   24   41 1
    43   25   26 2
    44   25   42 1
@<TRIPOS>MOLECULE
ZINC17252042
   42    45     0     0     0
SMALL
USER_CHARGES
N-[3-(3-chloroanilino)quinoxalin-2-yl]-4-fluoro-benzenesulfonamide
@<TRIPOS>ATOM
      1 C1          6.8313   -1.8665   -4.2334 C.ar      1 <0>        -0.1434
      2 C2          6.8529   -1.4420   -2.9075 C.ar      1 <0>        -0.1145
      3 C3          5.7495   -1.5589   -2.1174 C.ar      1 <0>        -0.1027
      4 C4          4.5715   -2.1135   -2.6430 C.ar      1 <0>         0.1136
      5 C5          4.5493   -2.5447   -3.9911 C.ar      1 <0>         0.0484
      6 C6          5.7058   -2.4091   -4.7759 C.ar      1 <0>        -0.0741
      7 N1          3.4291   -3.0754   -4.5027 N.ar      1 <0>        -0.4956
      8 C7          2.3563   -3.1922   -3.7476 C.ar      1 <0>         0.3726
      9 C8          2.3783   -2.7606   -2.3998 C.ar      1 <0>         0.4018
     10 N2          3.4703   -2.2328   -1.8868 N.ar      1 <0>        -0.5490
     11 N3          1.2414   -2.8891   -1.6164 N.2       1 <0>        -1.0359
     12 S1          1.2616   -2.3857   -0.0389 S.o2      1 <0>         2.6278
     13 O1          2.4289   -2.9423    0.5500 O.2       1 <0>        -1.0053
     14 O2         -0.0402   -2.6222    0.4796 O.2       1 <0>        -0.9949
     15 C9          1.4885   -0.6384   -0.0525 C.ar      1 <0>        -0.6675
     16 C10         0.3903    0.2004   -0.0917 C.ar      1 <0>        -0.0010
     17 C11         0.5670    1.5710   -0.1014 C.ar      1 <0>        -0.1873
     18 C12         1.8446    2.1040   -0.0723 C.ar      1 <0>         0.1293
     19 C13         2.9437    1.2629   -0.0335 C.ar      1 <0>        -0.1860
     20 C14         2.7645   -0.1074   -0.0234 C.ar      1 <0>         0.0270
     21 F1          2.0185    3.4437   -0.0823 F         1 <0>        -0.1428
     22 N4          1.1971   -3.7413   -4.2769 N.pl3     1 <0>        -0.6468
     23 C15         1.1327   -4.0612   -5.6356 C.ar      1 <0>         0.2014
     24 C16         0.3818   -5.1508   -6.0594 C.ar      1 <0>        -0.1605
     25 C17         0.3195   -5.4644   -7.4027 C.ar      1 <0>        -0.0854
     26 C18         1.0033   -4.6955   -8.3267 C.ar      1 <0>        -0.1517
     27 C19         1.7518   -3.6092   -7.9086 C.ar      1 <0>        -0.0099
     28 C20         1.8143   -3.2873   -6.5657 C.ar      1 <0>        -0.1204
     29 Cl1         2.6081   -2.6465   -9.0721 Cl        1 <0>        -0.0812
     30 H1          7.7188   -1.7638   -4.8401 H         1 <0>         0.1165
     31 H2          7.7571   -1.0146   -2.4998 H         1 <0>         0.1169
     32 H3          5.7804   -1.2256   -1.0906 H         1 <0>         0.1233
     33 H4          5.7028   -2.7335   -5.8061 H         1 <0>         0.1213
     34 H5         -0.6061   -0.2156   -0.1143 H         1 <0>         0.1422
     35 H6         -0.2909    2.2260   -0.1362 H         1 <0>         0.1344
     36 H7          3.9407    1.6775   -0.0105 H         1 <0>         0.1346
     37 H8          3.6217   -0.7637    0.0076 H         1 <0>         0.1559
     38 H9          0.3289   -3.9248   -3.6269 H         1 <0>         0.4615
     39 H10        -0.1523   -5.7522   -5.3387 H         1 <0>         0.1287
     40 H11        -0.2644   -6.3111   -7.7323 H         1 <0>         0.1284
     41 H12         0.9527   -4.9430   -9.3767 H         1 <0>         0.1253
     42 H13         2.3955   -2.4372   -6.2399 H         1 <0>         0.1453
@<TRIPOS>BOND
     1    1    6 ar
     2    1    2 ar
     3    1   30 1
     4    2    3 ar
     5    2   31 1
     6    3    4 ar
     7    3   32 1
     8    4   10 ar
     9    4    5 ar
    10    5    6 ar
    11    5    7 ar
    12    6   33 1
    13    7    8 ar
    14    8    9 ar
    15    8   22 1
    16    9   10 ar
    17    9   11 1
    18   11   12 1
    19   12   13 2
    20   12   14 2
    21   12   15 1
    22   15   20 ar
    23   15   16 ar
    24   16   17 ar
    25   16   34 1
    26   17   18 ar
    27   17   35 1
    28   18   19 ar
    29   18   21 1
    30   19   20 ar
    31   19   36 1
    32   20   37 1
    33   22   23 1
    34   22   38 1
    35   23   28 ar
    36   23   24 ar
    37   24   25 ar
    38   24   39 1
    39   25   26 ar
    40   25   40 1
    41   26   27 ar
    42   26   41 1
    43   27   28 ar
    44   27   29 1
    45   28   42 1
@<TRIPOS>MOLECULE
ZINC04933152
   39    41     0     0     0
SMALL
USER_CHARGES

@<TRIPOS>ATOM
      1 C1         -0.0184    1.5028    0.0103 C.3       1 <0>        -0.0769
      2 C2          0.0021   -0.0041    0.0020 C.2       1 <0>         0.1147
      3 C3          0.0081   -0.8258   -1.1462 C.2       1 <0>        -0.1542
      4 C4          0.0287   -2.1353   -0.7125 C.2       1 <0>         0.1497
      5 N1          0.0349   -2.1116    0.6389 N.pl3     1 <0>        -0.3125
      6 N2          0.0230   -0.7756    1.0556 N.2       1 <0>        -0.2693
      7 C5          0.0541   -3.2330    1.4791 C.ar      1 <0>         0.1434
      8 C6         -0.6167   -4.3911    1.1091 C.ar      1 <0>        -0.1253
      9 C7         -0.5960   -5.4946    1.9393 C.ar      1 <0>        -0.0972
     10 C8          0.0919   -5.4471    3.1379 C.ar      1 <0>        -0.1172
     11 C9          0.7606   -4.2951    3.5094 C.ar      1 <0>        -0.1030
     12 C10         0.7487   -3.1903    2.6806 C.ar      1 <0>        -0.1047
     13 Cl1         0.0432   -3.5513   -1.7166 Cl        1 <0>         0.0342
     14 C11        -0.0056   -0.3688   -2.5493 C.2       1 <0>         0.0976
     15 N3          0.0019   -1.2363   -3.5143 N.2       1 <0>        -0.2174
     16 N4         -0.0111   -0.8025   -4.8464 N.pl3     1 <0>        -0.5760
     17 C12        -0.0029   -1.7357   -5.8844 C.ar      1 <0>         0.1893
     18 C13         0.0123   -3.0970   -5.5958 C.ar      1 <0>        -0.1529
     19 C14         0.0200   -4.0255   -6.6185 C.ar      1 <0>        -0.1012
     20 C15         0.0131   -3.6095   -7.9362 C.ar      1 <0>        -0.0396
     21 C16        -0.0023   -2.2438   -8.2375 C.ar      1 <0>        -0.0912
     22 C17        -0.0158   -1.3061   -7.2024 C.ar      1 <0>        -0.1286
     23 C18        -0.0098   -1.7958   -9.6424 C.2       1 <0>         0.5174
     24 O1         -0.0232   -0.6009   -9.9032 O.co2     1 <0>        -0.6896
     25 O2         -0.0026   -2.6190  -10.5469 O.co2     1 <0>        -0.6577
     26 Cl2         0.0239   -4.7813   -9.2170 Cl        1 <0>        -0.0528
     27 H1          1.0042    1.8801    0.0026 H         1 <0>         0.0865
     28 H2         -0.5455    1.8639   -0.8728 H         1 <0>         0.0854
     29 H3         -0.5286    1.8543    0.9071 H         1 <0>         0.0808
     30 H4         -1.1544   -4.4287    0.1732 H         1 <0>         0.1343
     31 H5         -1.1178   -6.3955    1.6522 H         1 <0>         0.1351
     32 H6          0.1067   -6.3113    3.7855 H         1 <0>         0.1305
     33 H7          1.2963   -4.2607    4.4465 H         1 <0>         0.1334
     34 H8          1.2754   -2.2925    2.9689 H         1 <0>         0.1350
     35 H9         -0.0220    0.6876   -2.7731 H         1 <0>         0.1235
     36 H10        -0.0258    0.1463   -5.0474 H         1 <0>         0.3897
     37 H11         0.0186   -3.4288   -4.5681 H         1 <0>         0.1290
     38 H12         0.0319   -5.0804   -6.3875 H         1 <0>         0.1241
     39 H13        -0.0322   -0.2500   -7.4281 H         1 <0>         0.1339
@<TRIPOS>BOND
     1    1    2 1
     2    1   27 1
     3    1   28 1
     4    1   29 1
     5    2    6 2
     6    2    3 1
     7    3    4 2
     8    3   14 1
     9    4    5 1
    10    4   13 1
    11    5    6 1
    12    5    7 1
    13    7   12 ar
    14    7    8 ar
    15    8    9 ar
    16    8   30 1
    17    9   10 ar
    18    9   31 1
    19   10   11 ar
    20   10   32 1
    21   11   12 ar
    22   11   33 1
    23   12   34 1
    24   14   15 2
    25   14   35 1
    26   15   16 1
    27   16   17 1
    28   16   36 1
    29   17   22 ar
    30   17   18 ar
    31   18   19 ar
    32   18   37 1
    33   19   20 ar
    34   19   38 1
    35   20   21 ar
    36   20   26 1
    37   21   22 ar
    38   21   23 1
    39   22   39 1
    40   23   24 2
    41   23   25 1
@<TRIPOS>MOLECULE
ZINC24813850
   46    48     0     0     0
SMALL
USER_CHARGES

@<TRIPOS>ATOM
      1 C1          0.0235    1.5032    0.0056 C.3       1 <0>        -0.1116
      2 C2          0.0328   -0.0037   -0.0014 C.ar      1 <0>        -0.0998
      3 C3          0.6307   -0.6852   -1.0459 C.ar      1 <0>        -0.1068
      4 C4          0.6410   -2.0660   -1.0554 C.ar      1 <0>        -0.1120
      5 C5          0.0503   -2.7706   -0.0142 C.ar      1 <0>         0.1410
      6 C6         -0.5488   -2.0833    1.0333 C.ar      1 <0>        -0.1088
      7 C7         -0.5514   -0.7020    1.0391 C.ar      1 <0>        -0.1049
      8 C8         -1.1908   -2.8436    2.1650 C.3       1 <0>        -0.1160
      9 N1          0.0586   -4.1690   -0.0209 N.am      1 <0>        -0.6699
     10 C9         -0.0404   -4.8379   -1.1868 C.2       1 <0>         0.5651
     11 O1         -0.0542   -4.2278   -2.2383 O.2       1 <0>        -0.5068
     12 C10        -0.1322   -6.3126   -1.1871 C.ar      1 <0>        -0.1657
     13 C11        -0.1224   -7.0157    0.0194 C.ar      1 <0>        -0.0386
     14 C12        -0.2082   -8.3917    0.0128 C.ar      1 <0>        -0.1435
     15 C13        -0.3041   -9.0768   -1.1875 C.ar      1 <0>         0.0864
     16 C14        -0.3143   -8.3850   -2.3872 C.ar      1 <0>        -0.6216
     17 C15        -0.2348   -7.0082   -2.3932 C.ar      1 <0>         0.0450
     18 S1         -0.4360   -9.2653   -3.9087 S.o2      1 <0>         2.5960
     19 O2         -1.5146  -10.1790   -3.7642 O.2       1 <0>        -1.0090
     20 O3         -0.3945   -8.2934   -4.9446 O.2       1 <0>        -1.0218
     21 N2          0.9389  -10.1760   -4.0588 N.2       1 <0>        -1.0759
     22 C16         1.1207  -10.9876   -5.1827 C.ar      1 <0>         0.2751
     23 C17         0.1514  -11.0263   -6.1766 C.ar      1 <0>        -0.2417
     24 C18         0.3333  -11.8284   -7.2862 C.ar      1 <0>        -0.0925
     25 C19         1.4809  -12.5935   -7.4082 C.ar      1 <0>        -0.0237
     26 C20         2.4486  -12.5564   -6.4185 C.ar      1 <0>        -0.1066
     27 C21         2.2733  -11.7518   -5.3097 C.ar      1 <0>        -0.1572
     28 F1          1.6565  -13.3777   -8.4942 F         1 <0>        -0.1651
     29 Cl1        -0.4113  -10.8095   -1.1878 Cl        1 <0>        -0.0170
     30 H1          0.9164    1.8697    0.5120 H         1 <0>         0.0683
     31 H2          0.0107    1.8713   -1.0203 H         1 <0>         0.0656
     32 H3         -0.8634    1.8586    0.5302 H         1 <0>         0.0641
     33 H4          1.0898   -0.1368   -1.8552 H         1 <0>         0.1250
     34 H5          1.1074   -2.5975   -1.8717 H         1 <0>         0.1423
     35 H6         -1.0139   -0.1669    1.8553 H         1 <0>         0.1240
     36 H7         -0.4527   -3.0238    2.9466 H         1 <0>         0.0709
     37 H8         -2.0164   -2.2601    2.5725 H         1 <0>         0.0712
     38 H9         -1.5678   -3.7969    1.7946 H         1 <0>         0.0641
     39 H10         0.1355   -4.6576    0.8135 H         1 <0>         0.4088
     40 H11        -0.0473   -6.4828    0.9558 H         1 <0>         0.1359
     41 H12        -0.2004   -8.9367    0.9452 H         1 <0>         0.1467
     42 H13        -0.2477   -6.4694   -3.3291 H         1 <0>         0.1616
     43 H14        -0.7440  -10.4300   -6.0817 H         1 <0>         0.1052
     44 H15        -0.4204  -11.8591   -8.0592 H         1 <0>         0.1144
     45 H16         3.3428  -13.1543   -6.5155 H         1 <0>         0.1171
     46 H17         3.0304  -11.7197   -4.5401 H         1 <0>         0.1224
@<TRIPOS>BOND
     1    1    2 1
     2    1   30 1
     3    1   31 1
     4    1   32 1
     5    2    7 ar
     6    2    3 ar
     7    3    4 ar
     8    3   33 1
     9    4    5 ar
    10    4   34 1
    11    5    6 ar
    12    5    9 1
    13    6    7 ar
    14    6    8 1
    15    7   35 1
    16    8   36 1
    17    8   37 1
    18    8   38 1
    19    9   10 am
    20    9   39 1
    21   10   11 2
    22   10   12 1
    23   12   17 ar
    24   12   13 ar
    25   13   14 ar
    26   13   40 1
    27   14   15 ar
    28   14   41 1
    29   15   16 ar
    30   15   29 1
    31   16   17 ar
    32   16   18 1
    33   17   42 1
    34   18   19 2
    35   18   20 2
    36   18   21 1
    37   21   22 1
    38   22   27 ar
    39   22   23 ar
    40   23   24 ar
    41   23   43 1
    42   24   25 ar
    43   24   44 1
    44   25   26 ar
    45   25   28 1
    46   26   27 ar
    47   26   45 1
    48   27   46 1
@<TRIPOS>MOLECULE
ZINC64590447
   55    58     0     0     0
SMALL
USER_CHARGES

@<TRIPOS>ATOM
      1 C1          0.5337    0.3287   -0.5594 C.ar      1 <0>        -0.0558
      2 C2          1.7831    0.9171   -0.5319 C.ar      1 <0>        -0.1995
      3 C3          1.9143    2.2491   -0.1604 C.ar      1 <0>         0.2393
      4 C4          0.7876    2.9857    0.1824 C.ar      1 <0>        -0.1992
      5 C5         -0.4597    2.3914    0.1529 C.ar      1 <0>         0.0182
      6 C6         -0.5862    1.0637   -0.2178 C.ar      1 <0>        -0.1792
      7 Cl1        -1.8687    3.3103    0.5815 Cl        1 <0>        -0.0772
      8 N1          3.1765    2.8464   -0.1313 N.pl3     1 <0>        -0.6193
      9 C7          3.3220    4.2719    0.1951 C.3       1 <0>         0.1020
     10 C8          4.2954    4.4082    1.3725 C.3       1 <0>         0.1113
     11 N2          5.5018    3.6223    1.0778 N.pl3     1 <0>        -0.6336
     12 C9          5.3563    2.1968    0.7514 C.3       1 <0>         0.1071
     13 C10         4.3834    2.0592   -0.4205 C.3       1 <0>         0.1037
     14 C11         6.7663    4.2207    1.1070 C.ar      1 <0>         0.1829
     15 C12         6.8946    5.5536    1.4873 C.ar      1 <0>        -0.1844
     16 C13         8.1364    6.1532    1.5195 C.ar      1 <0>        -0.0865
     17 C14         9.2697    5.4301    1.1722 C.ar      1 <0>         0.1193
     18 C15         9.1485    4.0853    0.7881 C.ar      1 <0>        -0.1121
     19 C16         7.8860    3.4842    0.7635 C.ar      1 <0>        -0.1423
     20 C17        10.3440    3.3111    0.4180 C.2       1 <0>         0.5243
     21 O1         10.2526    2.1101    0.2032 O.co2     1 <0>        -0.6828
     22 O2         11.4291    3.8684    0.3250 O.co2     1 <0>        -0.6846
     23 N3         10.5235    6.0376    1.2045 N.am      1 <0>        -0.6352
     24 C18        10.6715    7.3015    0.7603 C.2       1 <0>         0.5163
     25 O3          9.6992    7.9445    0.4257 O.2       1 <0>        -0.5492
     26 C19        12.0453    7.9156    0.6795 C.3       1 <0>        -0.1112
     27 C20        12.6663    8.0087    2.0886 C.3       1 <0>        -0.1161
     28 C21        13.4434    9.3484    2.0736 C.3       1 <0>        -0.1226
     29 C22        12.5138   10.2735    1.2494 C.3       1 <0>        -0.1227
     30 C23        11.9484    9.3556    0.1460 C.3       1 <0>        -0.1182
     31 H1          0.4311   -0.7057   -0.8525 H         1 <0>         0.1296
     32 H2          2.6574    0.3418   -0.7986 H         1 <0>         0.1298
     33 H3          0.8863    4.0215    0.4719 H         1 <0>         0.1326
     34 H4         -1.5619    0.6012   -0.2405 H         1 <0>         0.1267
     35 H5          3.7161    4.8067   -0.6691 H         1 <0>         0.0701
     36 H6          2.3521    4.6845    0.4727 H         1 <0>         0.0892
     37 H7          4.5647    5.4561    1.5051 H         1 <0>         0.0931
     38 H8          3.8258    4.0309    2.2809 H         1 <0>         0.0599
     39 H9          6.3262    1.7842    0.4738 H         1 <0>         0.1013
     40 H10         4.9622    1.6620    1.6156 H         1 <0>         0.0606
     41 H11         4.1142    1.0109   -0.5493 H         1 <0>         0.0918
     42 H12         4.8547    2.4328   -1.3295 H         1 <0>         0.0710
     43 H13         6.0168    6.1215    1.7582 H         1 <0>         0.1160
     44 H14         8.2274    7.1880    1.8153 H         1 <0>         0.1262
     45 H15         7.7848    2.4490    0.4726 H         1 <0>         0.1297
     46 H16        11.2896    5.5508    1.5465 H         1 <0>         0.4196
     47 H17        12.6834    7.3183    0.0282 H         1 <0>         0.1022
     48 H18        11.8856    8.0290    2.8490 H         1 <0>         0.0682
     49 H19        13.3468    7.1749    2.2614 H         1 <0>         0.0756
     50 H20        13.5715    9.7321    3.0857 H         1 <0>         0.0654
     51 H21        14.4076    9.2302    1.5792 H         1 <0>         0.0683
     52 H22        11.7085   10.6596    1.8743 H         1 <0>         0.0640
     53 H23        13.0830   11.0925    0.8098 H         1 <0>         0.0631
     54 H24        12.5400    9.4574   -0.7638 H         1 <0>         0.0643
     55 H25        10.9077    9.6103   -0.0545 H         1 <0>         0.0889
@<TRIPOS>BOND
     1    1    6 ar
     2    1    2 ar
     3    1   31 1
     4    2    3 ar
     5    2   32 1
     6    3    4 ar
     7    3    8 1
     8    4    5 ar
     9    4   33 1
    10    5    6 ar
    11    5    7 1
    12    6   34 1
    13    8   13 1
    14    8    9 1
    15    9   10 1
    16    9   35 1
    17    9   36 1
    18   10   11 1
    19   10   37 1
    20   10   38 1
    21   11   12 1
    22   11   14 1
    23   12   13 1
    24   12   39 1
    25   12   40 1
    26   13   41 1
    27   13   42 1
    28   14   19 ar
    29   14   15 ar
    30   15   16 ar
    31   15   43 1
    32   16   17 ar
    33   16   44 1
    34   17   18 ar
    35   17   23 1
    36   18   19 ar
    37   18   20 1
    38   19   45 1
    39   20   21 2
    40   20   22 1
    41   23   24 am
    42   23   46 1
    43   24   25 2
    44   24   26 1
    45   26   30 1
    46   26   27 1
    47   26   47 1
    48   27   28 1
    49   27   48 1
    50   27   49 1
    51   28   29 1
    52   28   50 1
    53   28   51 1
    54   29   30 1
    55   29   52 1
    56   29   53 1
    57   30   54 1
    58   30   55 1
@<TRIPOS>MOLECULE
ZINC10649406
   42    45     0     0     0
SMALL
USER_CHARGES
N-(1-benzofuran-2-ylethyl)-2-[(4-cyclopropyl-1,2,4-triazol-3-yl)sulfanyl]acetamide
@<TRIPOS>ATOM
      1 C1         -1.8187    2.2579    1.4440 C.3       1 <0>        -0.1661
      2 C2         -1.2634    2.1861    0.0201 C.3       1 <0>         0.2280
      3 H1         -1.0238    3.1911   -0.3275 H         1 <0>         0.1233
      4 C3         -0.0162    1.3403    0.0094 C.2       1 <0>         0.0178
      5 C4          1.2353    1.8190    0.0000 C.2       1 <0>        -0.1829
      6 C5          2.1210    0.6486   -0.0147 C.ar      1 <0>        -0.1321
      7 C6          3.5039    0.4727   -0.0285 C.ar      1 <0>        -0.0688
      8 C7          4.0263   -0.7909   -0.0398 C.ar      1 <0>        -0.1343
      9 C8          3.1890   -1.8972   -0.0378 C.ar      1 <0>        -0.0899
     10 C9          1.8193   -1.7428   -0.0242 C.ar      1 <0>        -0.1072
     11 C10         1.2679   -0.4676   -0.0125 C.ar      1 <0>         0.0561
     12 O1          0.0021   -0.0041    0.0020 O.3       1 <0>        -0.1905
     13 N1         -2.2660    1.5890   -0.8656 N.am      1 <0>        -0.7196
     14 C11        -3.2237    2.3609   -1.4163 C.2       1 <0>         0.5402
     15 O2         -3.2556    3.5498   -1.1787 O.2       1 <0>        -0.5203
     16 C12        -4.2551    1.7467   -2.3274 C.3       1 <0>        -0.1495
     17 S1         -5.3940    3.0309   -2.9018 S.3       1 <0>         0.0864
     18 C13        -6.4601    2.0626   -3.9169 C.2       1 <0>         0.1442
     19 N2         -6.3709    0.7708   -4.1334 N.2       1 <0>        -0.2954
     20 N3         -7.3116    0.3946   -4.9242 N.2       1 <0>        -0.2828
     21 C14        -8.0510    1.4146   -5.2568 C.2       1 <0>         0.1608
     22 N4         -7.5389    2.5127   -4.6226 N.pl3     1 <0>        -0.4346
     23 C15        -8.0413    3.8872   -4.6892 C.3       1 <0>         0.0471
     24 C16        -9.3849    4.1153   -5.3847 C.3       1 <0>        -0.1648
     25 C17        -8.0871    4.5567   -6.0642 C.3       1 <0>        -0.1694
     26 H2         -2.7208    2.8696    1.4517 H         1 <0>         0.0767
     27 H3         -2.0582    1.2529    1.7916 H         1 <0>         0.0659
     28 H4         -1.0727    2.7021    2.1030 H         1 <0>         0.0763
     29 H5          1.5326    2.8573    0.0031 H         1 <0>         0.1620
     30 H6          4.1597    1.3307   -0.0305 H         1 <0>         0.1291
     31 H7          5.0974   -0.9286   -0.0509 H         1 <0>         0.1314
     32 H8          3.6149   -2.8897   -0.0465 H         1 <0>         0.1371
     33 H9          1.1765   -2.6107   -0.0224 H         1 <0>         0.1336
     34 H10        -2.2405    0.6382   -1.0556 H         1 <0>         0.4113
     35 H11        -3.7582    1.2920   -3.1844 H         1 <0>         0.1297
     36 H12        -4.8121    0.9838   -1.7836 H         1 <0>         0.1300
     37 H13        -8.9117    1.3956   -5.9089 H         1 <0>         0.2211
     38 H14        -7.8054    4.5161   -3.8308 H         1 <0>         0.1497
     39 H15        -9.8950    3.2427   -5.7926 H         1 <0>         0.1072
     40 H16       -10.0333    4.8944   -4.9837 H         1 <0>         0.1194
     41 H17        -7.8817    5.6262   -6.1103 H         1 <0>         0.1179
     42 H18        -7.7430    3.9747   -6.9191 H         1 <0>         0.1059
@<TRIPOS>BOND
     1    1    2 1
     2    1   26 1
     3    1   27 1
     4    1   28 1
     5    2    3 1
     6    2    4 1
     7    2   13 1
     8    4   12 1
     9    4    5 2
    10    5    6 1
    11    5   29 1
    12    6   11 ar
    13    6    7 ar
    14    7    8 ar
    15    7   30 1
    16    8    9 ar
    17    8   31 1
    18    9   10 ar
    19    9   32 1
    20   10   11 ar
    21   10   33 1
    22   11   12 1
    23   13   14 am
    24   13   34 1
    25   14   15 2
    26   14   16 1
    27   16   17 1
    28   16   35 1
    29   16   36 1
    30   17   18 1
    31   18   22 1
    32   18   19 2
    33   19   20 1
    34   20   21 2
    35   21   22 1
    36   21   37 1
    37   22   23 1
    38   23   25 1
    39   23   24 1
    40   23   38 1
    41   24   25 1
    42   24   39 1
    43   24   40 1
    44   25   41 1
    45   25   42 1
@<TRIPOS>MOLECULE
ZINC40535086
   38    39     0     0     0
SMALL
USER_CHARGES

@<TRIPOS>ATOM
      1 C1         -0.5158    1.5218   -0.0058 C.3       1 <0>        -0.1737
      2 C2         -0.6587   -0.0014   -0.0305 C.3       1 <0>         0.0971
      3 N1         -2.0662   -0.3566   -0.2283 N.pl3     1 <0>        -0.4658
      4 C3         -2.9772   -0.6434    0.7327 C.2       1 <0>         0.1631
      5 N2         -4.1060   -0.9052    0.1320 N.2       1 <0>        -0.2932
      6 N3         -3.9539   -0.7994   -1.1406 N.2       1 <0>        -0.2678
      7 C4         -2.7227   -0.4594   -1.4091 C.2       1 <0>         0.1476
      8 C5         -2.1386   -0.2275   -2.7789 C.3       1 <0>         0.2136
      9 N4         -1.6012   -1.4868   -3.3001 N.am      1 <0>        -0.7244
     10 C6         -1.0256   -1.5209   -4.5183 C.2       1 <0>         0.5235
     11 O1         -0.9526   -0.5090   -5.1830 O.2       1 <0>        -0.5005
     12 C7         -0.4728   -2.8162   -5.0545 C.3       1 <0>         0.0655
     13 H1         -1.2518   -3.5784   -5.0375 H         1 <0>         0.1048
     14 C8          0.7020   -3.2682   -4.1848 C.3       1 <0>        -0.1782
     15 O2         -0.0246   -2.6231   -6.3976 O.3       1 <0>        -0.2684
     16 C9          0.0100   -3.7197   -7.2004 C.ar      1 <0>         0.1442
     17 C10        -0.2693   -4.9731   -6.6763 C.ar      1 <0>        -0.1903
     18 C11        -0.2336   -6.0864   -7.4935 C.ar      1 <0>        -0.0624
     19 C12         0.0805   -5.9522   -8.8345 C.ar      1 <0>        -0.0615
     20 C13         0.3596   -4.7033   -9.3600 C.ar      1 <0>        -0.0624
     21 C14         0.3194   -3.5858   -8.5469 C.ar      1 <0>        -0.0561
     22 Cl1         0.6625   -2.0176   -9.2078 Cl        1 <0>        -0.0350
     23 Cl2         0.1251   -7.3532   -9.8587 Cl        1 <0>        -0.0541
     24 H2          0.5314    1.7861    0.1413 H         1 <0>         0.0850
     25 H3         -0.8653    1.9349   -0.9520 H         1 <0>         0.0662
     26 H4         -1.1116    1.9294    0.8108 H         1 <0>         0.0678
     27 H5         -0.0629   -0.4090   -0.8472 H         1 <0>         0.0976
     28 H6         -0.3092   -0.4145    0.9156 H         1 <0>         0.1045
     29 H7         -2.8018   -0.6539    1.7983 H         1 <0>         0.2223
     30 H8         -2.9165    0.1402   -3.4480 H         1 <0>         0.1087
     31 H9         -1.3382    0.5093   -2.7126 H         1 <0>         0.0917
     32 H10        -1.6597   -2.2960   -2.7685 H         1 <0>         0.4047
     33 H11         1.4810   -2.5060   -4.2018 H         1 <0>         0.0798
     34 H12         0.3601   -3.4155   -3.1604 H         1 <0>         0.0798
     35 H13         1.1019   -4.2051   -4.5726 H         1 <0>         0.0807
     36 H14        -0.5142   -5.0788   -5.6298 H         1 <0>         0.1480
     37 H15        -0.4508   -7.0624   -7.0854 H         1 <0>         0.1450
     38 H16         0.6049   -4.6006  -10.4067 H         1 <0>         0.1526
@<TRIPOS>BOND
     1    1    2 1
     2    1   24 1
     3    1   25 1
     4    1   26 1
     5    2    3 1
     6    2   27 1
     7    2   28 1
     8    3    7 1
     9    3    4 1
    10    4    5 2
    11    4   29 1
    12    5    6 1
    13    6    7 2
    14    7    8 1
    15    8    9 1
    16    8   30 1
    17    8   31 1
    18    9   10 am
    19    9   32 1
    20   10   11 2
    21   10   12 1
    22   12   13 1
    23   12   14 1
    24   12   15 1
    25   14   33 1
    26   14   34 1
    27   14   35 1
    28   15   16 1
    29   16   21 ar
    30   16   17 ar
    31   17   18 ar
    32   17   36 1
    33   18   19 ar
    34   18   37 1
    35   19   20 ar
    36   19   23 1
    37   20   21 ar
    38   20   38 1
    39   21   22 1
@<TRIPOS>MOLECULE
ZINC58013305
   42    44     0     0     0
SMALL
USER_CHARGES

@<TRIPOS>ATOM
      1 C1         -0.0184    1.5028    0.0103 C.3       1 <0>        -0.1177
      2 C2          0.0021   -0.0041    0.0020 C.ar      1 <0>        -0.0679
      3 C3          0.0057   -0.6883   -1.1999 C.ar      1 <0>        -0.1119
      4 C4          0.0240   -2.0707   -1.2115 C.ar      1 <0>        -0.0952
      5 C5          0.0391   -2.7726   -0.0217 C.ar      1 <0>        -0.1158
      6 C6          0.0360   -2.0886    1.1861 C.ar      1 <0>         0.1162
      7 C7          0.0229   -0.7002    1.1945 C.ar      1 <0>        -0.1126
      8 N1          0.0508   -2.7983    2.3951 N.pl3     1 <0>        -0.3990
      9 C8          0.8978   -2.5848    3.4617 C.2       1 <0>        -0.0380
     10 C9          0.5702   -3.4815    4.4077 C.2       1 <0>        -0.0113
     11 N2         -0.4469   -4.2302    3.9486 N.2       1 <0>        -0.4797
     12 C10        -0.7739   -3.8275    2.7427 C.2       1 <0>         0.1975
     13 S1         -2.0562   -4.5045    1.7417 S.3       1 <0>        -0.0129
     14 C11        -2.7636   -5.8231    2.7673 C.3       1 <0>        -0.0888
     15 C12        -3.9041   -6.5036    2.0077 C.3       1 <0>        -0.1220
     16 C13        -4.4918   -7.5990    2.8597 C.2       1 <0>         0.5327
     17 O1         -4.0425   -7.8142    3.9654 O.2       1 <0>        -0.4952
     18 N3         -5.5165   -8.3395    2.3928 N.am      1 <0>        -0.6339
     19 C14        -6.0605   -9.3535    3.1814 C.2       1 <0>         0.3309
     20 C15        -5.6427   -9.7090    4.4835 C.2       1 <0>        -0.2878
     21 C16        -6.4111  -10.7293    4.9043 C.2       1 <0>         0.0807
     22 O2         -7.2848  -11.0252    3.9293 O.3       1 <0>        -0.0699
     23 N4         -7.0516  -10.1402    2.8486 N.2       1 <0>        -0.3526
     24 C17        -6.3089  -11.4207    6.2395 C.3       1 <0>        -0.0894
     25 H1          1.0042    1.8801    0.0026 H         1 <0>         0.0759
     26 H2         -0.5455    1.8639   -0.8728 H         1 <0>         0.0728
     27 H3         -0.5286    1.8543    0.9071 H         1 <0>         0.0695
     28 H4         -0.0061   -0.1416   -2.1312 H         1 <0>         0.1319
     29 H5          0.0261   -2.6023   -2.1515 H         1 <0>         0.1360
     30 H6          0.0530   -3.8525   -0.0314 H         1 <0>         0.1341
     31 H7          0.0245   -0.1653    2.1327 H         1 <0>         0.1302
     32 H8          1.6767   -1.8394    3.5248 H         1 <0>         0.1819
     33 H9          1.0443   -3.5834    5.3727 H         1 <0>         0.1792
     34 H10        -1.9918   -6.5574    2.9981 H         1 <0>         0.1063
     35 H11        -3.1478   -5.3963    3.6937 H         1 <0>         0.1059
     36 H12        -4.6759   -5.7693    1.7769 H         1 <0>         0.1158
     37 H13        -3.5199   -6.9304    1.0813 H         1 <0>         0.1158
     38 H14        -5.8758   -8.1673    1.5084 H         1 <0>         0.4242
     39 H15        -4.8452   -9.2430    5.0431 H         1 <0>         0.1825
     40 H16        -6.9550  -10.9181    6.9593 H         1 <0>         0.0962
     41 H17        -6.6205  -12.4600    6.1352 H         1 <0>         0.0882
     42 H18        -5.2773  -11.3840    6.5896 H         1 <0>         0.0974
@<TRIPOS>BOND
     1    1    2 1
     2    1   25 1
     3    1   26 1
     4    1   27 1
     5    2    7 ar
     6    2    3 ar
     7    3    4 ar
     8    3   28 1
     9    4    5 ar
    10    4   29 1
    11    5    6 ar
    12    5   30 1
    13    6    7 ar
    14    6    8 1
    15    7   31 1
    16    8   12 1
    17    8    9 1
    18    9   10 2
    19    9   32 1
    20   10   11 1
    21   10   33 1
    22   11   12 2
    23   12   13 1
    24   13   14 1
    25   14   15 1
    26   14   34 1
    27   14   35 1
    28   15   16 1
    29   15   36 1
    30   15   37 1
    31   16   17 2
    32   16   18 am
    33   18   19 1
    34   18   38 1
    35   19   23 2
    36   19   20 1
    37   20   21 2
    38   20   39 1
    39   21   22 1
    40   21   24 1
    41   22   23 1
    42   24   40 1
    43   24   41 1
    44   24   42 1
@<TRIPOS>MOLECULE
ZINC63809433
   44    46     0     0     0
SMALL
USER_CHARGES

@<TRIPOS>ATOM
      1 C1         -0.0184    1.5028    0.0103 C.3       1 <0>        -0.0780
      2 C2          0.0021   -0.0041    0.0020 C.2       1 <0>         0.0054
      3 C3         -1.0783   -0.8055    0.0027 C.2       1 <0>        -0.2171
      4 C4         -0.6011   -2.1363   -0.0068 C.2       1 <0>        -0.1769
      5 C5          0.7423   -2.0686   -0.0126 C.2       1 <0>        -0.0502
      6 O1          1.1020   -0.7746   -0.0131 O.3       1 <0>        -0.1616
      7 C6          1.6840   -3.2450   -0.0226 C.3       1 <0>         0.2148
      8 N1          1.9828   -3.6196   -1.4070 N.pl3     1 <0>        -0.3869
      9 C7          1.2882   -4.5026   -2.1604 C.2       1 <0>         0.3087
     10 C8          1.8897   -4.5645   -3.3800 C.2       1 <0>        -0.2762
     11 C9          2.9815   -3.6923   -3.3633 C.2       1 <0>         0.0644
     12 N2          3.0348   -3.1223   -2.1867 N.2       1 <0>        -0.2818
     13 N3          0.1615   -5.2193   -1.7603 N.am      1 <0>        -0.6343
     14 C10        -0.4352   -6.0707   -2.6180 C.2       1 <0>         0.6066
     15 O2          0.0094   -6.2135   -3.7413 O.2       1 <0>        -0.4964
     16 C11        -1.6252   -6.8277   -2.1954 C.2       1 <0>        -0.0114
     17 C12        -2.2596   -7.7072   -3.0317 C.2       1 <0>        -0.2285
     18 S1         -3.5158   -8.2763   -2.0724 S.3       1 <0>         0.2823
     19 C13        -3.2061   -7.4026   -0.6729 C.2       1 <0>         0.0143
     20 N4         -2.1465   -6.7012   -0.9710 N.2       1 <0>        -0.4783
     21 C14        -3.9693   -7.4271    0.6263 C.3       1 <0>        -0.0281
     22 C15        -5.0753   -6.3706    0.5882 C.3       1 <0>        -0.0915
     23 C16        -6.0972   -6.7407   -0.4887 C.3       1 <0>        -0.1580
     24 C17        -5.7693   -6.3093    1.9503 C.3       1 <0>        -0.1475
     25 H1          1.0042    1.8801    0.0026 H         1 <0>         0.0782
     26 H2         -0.5455    1.8639   -0.8728 H         1 <0>         0.0879
     27 H3         -0.5286    1.8543    0.9071 H         1 <0>         0.0889
     28 H4         -2.1119   -0.4924    0.0097 H         1 <0>         0.1508
     29 H5         -1.2002   -3.0349   -0.0086 H         1 <0>         0.1465
     30 H6          2.6082   -2.9750    0.4883 H         1 <0>         0.1189
     31 H7          1.2186   -4.0873    0.4893 H         1 <0>         0.1181
     32 H8          1.5790   -5.1789   -4.2121 H         1 <0>         0.1743
     33 H9          3.6622   -3.5154   -4.1830 H         1 <0>         0.1897
     34 H10        -0.1930   -5.1054   -0.8646 H         1 <0>         0.4176
     35 H11        -2.0146   -7.9685   -4.0506 H         1 <0>         0.2098
     36 H12        -4.4130   -8.4126    0.7685 H         1 <0>         0.0944
     37 H13        -3.2898   -7.2122    1.4510 H         1 <0>         0.0996
     38 H14        -4.6408   -5.3979    0.3577 H         1 <0>         0.0766
     39 H15        -5.6028   -6.7843   -1.4591 H         1 <0>         0.0522
     40 H16        -6.5318   -7.7134   -0.2582 H         1 <0>         0.0617
     41 H17        -6.8852   -5.9880   -0.5159 H         1 <0>         0.0625
     42 H18        -5.0412   -6.0457    2.7175 H         1 <0>         0.0585
     43 H19        -6.5572   -5.5566    1.9232 H         1 <0>         0.0608
     44 H20        -6.2038   -7.2820    2.1808 H         1 <0>         0.0592
@<TRIPOS>BOND
     1    1    2 1
     2    1   25 1
     3    1   26 1
     4    1   27 1
     5    2    6 1
     6    2    3 2
     7    3    4 1
     8    3   28 1
     9    4    5 2
    10    4   29 1
    11    5    6 1
    12    5    7 1
    13    7    8 1
    14    7   30 1
    15    7   31 1
    16    8   12 1
    17    8    9 1
    18    9   10 2
    19    9   13 1
    20   10   11 1
    21   10   32 1
    22   11   12 2
    23   11   33 1
    24   13   14 am
    25   13   34 1
    26   14   15 2
    27   14   16 1
    28   16   20 1
    29   16   17 2
    30   17   18 1
    31   17   35 1
    32   18   19 1
    33   19   20 2
    34   19   21 1
    35   21   22 1
    36   21   36 1
    37   21   37 1
    38   22   23 1
    39   22   24 1
    40   22   38 1
    41   23   39 1
    42   23   40 1
    43   23   41 1
    44   24   42 1
    45   24   43 1
    46   24   44 1
@<TRIPOS>MOLECULE
ZINC67132576
   61    62     0     0     0
SMALL
USER_CHARGES

@<TRIPOS>ATOM
      1 C1         -0.0187    1.5258    0.0104 C.3       1 <0>        -0.1639
      2 C2          0.0021   -0.0041    0.0020 C.3       1 <0>         0.1697
      3 C3          0.7421   -0.5109    1.2415 C.3       1 <0>        -0.1638
      4 C4         -1.4333   -0.5336    0.0129 C.3       1 <0>        -0.1564
      5 N1          0.6878   -0.4765   -1.2033 N.am      1 <0>        -0.7279
      6 C5          1.9715   -0.1323   -1.4270 C.2       1 <0>         0.5171
      7 O1          2.5590    0.5687   -0.6305 O.2       1 <0>        -0.5157
      8 C6          2.6769   -0.6183   -2.6669 C.3       1 <0>         0.0346
      9 N2          4.0550   -0.1098   -2.6773 N.3       1 <0>        -0.5225
     10 C7          4.8401   -0.6936   -1.5808 C.3       1 <0>         0.0551
     11 C8          6.2423   -0.0803   -1.5780 C.3       1 <0>         0.0612
     12 N3          6.8865   -0.3313   -2.8748 N.3       1 <0>        -0.5245
     13 C9          6.1014    0.2525   -3.9714 C.3       1 <0>         0.0551
     14 C10         4.6992   -0.3608   -3.9741 C.3       1 <0>         0.0608
     15 C11         8.2647    0.1771   -2.8853 C.3       1 <0>         0.0387
     16 C12         8.9700   -0.3089   -4.1251 C.2       1 <0>         0.5164
     17 O2          8.3825   -1.0098   -4.9217 O.2       1 <0>        -0.5207
     18 N4         10.2537    0.0354   -4.3488 N.am      1 <0>        -0.6155
     19 C13        10.9634    0.8821   -3.3867 C.3       1 <0>         0.0730
     20 C14        10.9394   -0.4371   -5.5542 C.3       1 <0>         0.1405
     21 C15        11.3961    0.7638   -6.3850 C.3       1 <0>        -0.1270
     22 C16        12.1123    0.2704   -7.6438 C.3       1 <0>        -0.1174
     23 C17        13.3297   -0.5654   -7.2434 C.3       1 <0>        -0.1217
     24 C18        12.8730   -1.7663   -6.4126 C.3       1 <0>        -0.1178
     25 C19        12.1569   -1.2728   -5.1538 C.3       1 <0>        -0.1258
     26 H1          1.0039    1.9031    0.0027 H         1 <0>         0.0790
     27 H2         -0.5459    1.8868   -0.8726 H         1 <0>         0.0532
     28 H3         -0.5289    1.8773    0.9072 H         1 <0>         0.0622
     29 H4          0.2319   -0.1594    2.1383 H         1 <0>         0.0628
     30 H5          0.7568   -1.6008    1.2356 H         1 <0>         0.0528
     31 H6          1.7647   -0.1336    1.2338 H         1 <0>         0.0778
     32 H7         -1.9605   -0.1726   -0.8702 H         1 <0>         0.0620
     33 H8         -1.4185   -1.6235    0.0069 H         1 <0>         0.0617
     34 H9         -1.9435   -0.1821    0.9097 H         1 <0>         0.0739
     35 H10         0.2179   -1.0371   -1.8404 H         1 <0>         0.3983
     36 H11         2.6917   -1.7081   -2.6729 H         1 <0>         0.0639
     37 H12         2.1497   -0.2572   -3.5499 H         1 <0>         0.1034
     38 H13         4.3495   -0.4836   -0.6304 H         1 <0>         0.0991
     39 H14         4.9151   -1.7719   -1.7212 H         1 <0>         0.0377
     40 H15         6.1690    0.9942   -1.4104 H         1 <0>         0.0464
     41 H16         6.8357   -0.5330   -0.7836 H         1 <0>         0.0797
     42 H17         6.0264    1.3308   -3.8309 H         1 <0>         0.0380
     43 H18         6.5920    0.0425   -4.9218 H         1 <0>         0.0980
     44 H19         4.7726   -1.4353   -4.1418 H         1 <0>         0.0464
     45 H20         4.1058    0.0918   -4.7686 H         1 <0>         0.0800
     46 H21         8.2499    1.2670   -2.8793 H         1 <0>         0.0646
     47 H22         8.7918   -0.1840   -2.0022 H         1 <0>         0.1038
     48 H23        11.4523    0.2543   -2.6417 H         1 <0>         0.0584
     49 H24        11.7129    1.4764   -3.9093 H         1 <0>         0.0749
     50 H25        10.2530    1.5454   -2.8932 H         1 <0>         0.0713
     51 H26        10.2570   -1.0487   -6.1443 H         1 <0>         0.1013
     52 H27        10.5288    1.3593   -6.6702 H         1 <0>         0.0646
     53 H28        12.0786    1.3755   -5.7948 H         1 <0>         0.0654
     54 H29        11.4298   -0.3412   -8.2339 H         1 <0>         0.0649
     55 H30        12.4376    1.1259   -8.2356 H         1 <0>         0.0661
     56 H31        13.8399   -0.9169   -8.1402 H         1 <0>         0.0643
     57 H32        14.0121    0.0463   -6.6533 H         1 <0>         0.0622
     58 H33        12.1905   -2.3779   -7.0028 H         1 <0>         0.0648
     59 H34        13.7403   -2.3617   -6.1274 H         1 <0>         0.0660
     60 H35        12.8393   -0.6612   -4.5637 H         1 <0>         0.0647
     61 H36        11.8315   -2.1284   -4.5620 H         1 <0>         0.0649
@<TRIPOS>BOND
     1    1    2 1
     2    1   26 1
     3    1   27 1
     4    1   28 1
     5    2    3 1
     6    2    4 1
     7    2    5 1
     8    3   29 1
     9    3   30 1
    10    3   31 1
    11    4   32 1
    12    4   33 1
    13    4   34 1
    14    5    6 am
    15    5   35 1
    16    6    7 2
    17    6    8 1
    18    8    9 1
    19    8   36 1
    20    8   37 1
    21    9   14 1
    22    9   10 1
    23   10   11 1
    24   10   38 1
    25   10   39 1
    26   11   12 1
    27   11   40 1
    28   11   41 1
    29   12   13 1
    30   12   15 1
    31   13   14 1
    32   13   42 1
    33   13   43 1
    34   14   44 1
    35   14   45 1
    36   15   16 1
    37   15   46 1
    38   15   47 1
    39   16   17 2
    40   16   18 am
    41   18   19 1
    42   18   20 1
    43   19   48 1
    44   19   49 1
    45   19   50 1
    46   20   25 1
    47   20   21 1
    48   20   51 1
    49   21   22 1
    50   21   52 1
    51   21   53 1
    52   22   23 1
    53   22   54 1
    54   22   55 1
    55   23   24 1
    56   23   56 1
    57   23   57 1
    58   24   25 1
    59   24   58 1
    60   24   59 1
    61   25   60 1
    62   25   61 1
@<TRIPOS>MOLECULE
ZINC20628574
   26    27     0     0     0
SMALL
USER_CHARGES
N-(4-bromo-2-methyl-phenyl)-2,5-dichloro-thiophene-3-sulfonamide
@<TRIPOS>ATOM
      1 C1          3.1429    3.9033   -0.1371 C.3       1 <0>        -0.0856
      2 C2          1.7538    3.3520    0.0562 C.ar      1 <0>        -0.1186
      3 C3          0.6770    4.2112    0.1576 C.ar      1 <0>        -0.0782
      4 C4         -0.5985    3.7059    0.3350 C.ar      1 <0>        -0.1366
      5 C5         -0.8002    2.3387    0.4072 C.ar      1 <0>        -0.0871
      6 C6          0.2730    1.4751    0.3117 C.ar      1 <0>        -0.1580
      7 C7          1.5550    1.9797    0.1330 C.ar      1 <0>         0.2425
      8 N1          2.6422    1.1081    0.0304 N.2       1 <0>        -1.0704
      9 S1          2.7635    0.0847   -1.2659 S.o2      1 <0>         2.5933
     10 O1          3.9495   -0.6743   -1.0746 O.2       1 <0>        -0.9917
     11 O2          1.4883   -0.5218   -1.4252 O.2       1 <0>        -1.0227
     12 C8          3.0287    1.0820   -2.6940 C.2       1 <0>        -0.6732
     13 C9          4.2477    1.0626   -3.3477 C.2       1 <0>        -0.0558
     14 C10         4.4160    1.8384   -4.4472 C.2       1 <0>        -0.1392
     15 S2          2.8273    2.6418   -4.5797 S.3       1 <0>         0.1264
     16 C11         2.0428    1.8847   -3.1661 C.2       1 <0>        -0.0109
     17 Cl1         0.4345    2.1153   -2.5547 Cl        1 <0>         0.0632
     18 Cl2         5.8159    2.0111   -5.4592 Cl        1 <0>         0.0117
     19 Br1        -2.0702    4.8854    0.4722 Br        1 <0>        -0.0936
     20 H1          3.0996    5.0018   -0.1735 H         1 <0>         0.0445
     21 H2          3.5610    3.5214   -1.0801 H         1 <0>         0.0552
     22 H3          3.7820    3.5891    0.7012 H         1 <0>         0.0698
     23 H4          0.8309    5.2785    0.0980 H         1 <0>         0.1149
     24 H5         -1.7976    1.9469    0.5420 H         1 <0>         0.1136
     25 H6          0.1154    0.4084    0.3714 H         1 <0>         0.1284
     26 H7          5.0515    0.4359   -2.9905 H         1 <0>         0.1582
@<TRIPOS>BOND
     1    1    2 1
     2    1   20 1
     3    1   21 1
     4    1   22 1
     5    2    7 ar
     6    2    3 ar
     7    3    4 ar
     8    3   23 1
     9    4    5 ar
    10    4   19 1
    11    5    6 ar
    12    5   24 1
    13    6    7 ar
    14    6   25 1
    15    7    8 1
    16    8    9 1
    17    9   10 2
    18    9   11 2
    19    9   12 1
    20   12   16 2
    21   12   13 1
    22   13   14 2
    23   13   26 1
    24   14   15 1
    25   14   18 1
    26   15   16 1
    27   16   17 1
@<TRIPOS>MOLECULE
ZINC08319440
   38    40     0     0     0
SMALL
USER_CHARGES

@<TRIPOS>ATOM
      1 C1          3.2761    0.8889   -0.0371 C.3       1 <0>        -0.1102
      2 C2          2.7064   -0.5063   -0.0378 C.ar      1 <0>        -0.0921
      3 C3          3.3345   -1.5085    0.6790 C.ar      1 <0>        -0.1080
      4 C4          2.8146   -2.7879    0.6807 C.ar      1 <0>        -0.0846
      5 C5          1.6601   -3.0676   -0.0383 C.ar      1 <0>         0.1578
      6 C6          1.0320   -2.0596   -0.7568 C.ar      1 <0>        -0.1051
      7 C7          1.5538   -0.7806   -0.7504 C.ar      1 <0>        -0.0833
      8 C8          0.8690    0.3158   -1.5251 C.3       1 <0>        -0.1094
      9 N1          1.1302   -4.3654   -0.0390 N.am      1 <0>        -0.5348
     10 C9          0.9292   -5.1369   -1.1297 C.2       1 <0>         0.5069
     11 O1          1.1674   -4.8510   -2.2889 O.2       1 <0>        -0.4824
     12 C10         0.3609   -6.3983   -0.6202 C.2       1 <0>         0.0385
     13 C11        -0.0103   -7.4981   -1.3590 C.2       1 <0>        -0.0762
     14 C12        -0.0277   -7.4258   -2.8225 C.ar      1 <0>        -0.0387
     15 C13        -0.5104   -6.2785   -3.4662 C.ar      1 <0>        -0.0407
     16 C14        -0.5234   -6.2182   -4.8430 C.ar      1 <0>        -0.0312
     17 C15        -0.0610   -7.2879   -5.5950 C.ar      1 <0>        -0.0947
     18 C16         0.4181   -8.4262   -4.9734 C.ar      1 <0>        -0.0571
     19 C17         0.4450   -8.5042   -3.5895 C.ar      1 <0>         0.1306
     20 O2          0.9208   -9.6191   -2.9784 O.3       1 <0>        -0.4757
     21 Cl1         0.9937   -9.7573   -5.9276 Cl        1 <0>        -0.0554
     22 Cl2        -1.1221   -4.7968   -5.6397 Cl        1 <0>        -0.0622
     23 N2          0.2789   -6.2519    0.7365 N.2       1 <0>        -0.5508
     24 C18         0.7323   -5.0721    1.0701 C.2       1 <0>         0.5030
     25 S1          0.8167   -4.4663    2.7226 S.3       1 <0>        -0.7307
     26 H1          2.8477    1.4558    0.7894 H         1 <0>         0.0683
     27 H2          4.3587    0.8392    0.0790 H         1 <0>         0.0636
     28 H3          3.0338    1.3807   -0.9792 H         1 <0>         0.0654
     29 H4          4.2326   -1.2905    1.2378 H         1 <0>         0.1250
     30 H5          3.3057   -3.5702    1.2403 H         1 <0>         0.1276
     31 H6          0.1340   -2.2743   -1.3172 H         1 <0>         0.1184
     32 H7          1.2696    0.3495   -2.5382 H         1 <0>         0.0676
     33 H8         -0.2022    0.1183   -1.5644 H         1 <0>         0.0635
     34 H9          1.0443    1.2724   -1.0330 H         1 <0>         0.0677
     35 H10        -0.2889   -8.4147   -0.8603 H         1 <0>         0.1465
     36 H11        -0.8717   -5.4433   -2.8846 H         1 <0>         0.1382
     37 H12        -0.0756   -7.2314   -6.6734 H         1 <0>         0.1431
     38 H13         0.2477  -10.2923   -2.8087 H         1 <0>         0.3914
@<TRIPOS>BOND
     1    1    2 1
     2    1   26 1
     3    1   27 1
     4    1   28 1
     5    2    7 ar
     6    2    3 ar
     7    3    4 ar
     8    3   29 1
     9    4    5 ar
    10    4   30 1
    11    5    6 ar
    12    5    9 1
    13    6    7 ar
    14    6   31 1
    15    7    8 1
    16    8   32 1
    17    8   33 1
    18    8   34 1
    19    9   24 1
    20    9   10 am
    21   10   11 2
    22   10   12 1
    23   12   13 2
    24   12   23 1
    25   13   14 1
    26   13   35 1
    27   14   19 ar
    28   14   15 ar
    29   15   16 ar
    30   15   36 1
    31   16   17 ar
    32   16   22 1
    33   17   18 ar
    34   17   37 1
    35   18   19 ar
    36   18   21 1
    37   19   20 1
    38   20   38 1
    39   23   24 2
    40   24   25 1
@<TRIPOS>MOLECULE
ZINC06533510
   37    39     0     0     0
SMALL
USER_CHARGES

@<TRIPOS>ATOM
      1 C1         -0.0187    1.5258    0.0104 C.3       1 <0>        -0.1518
      2 C2          0.0021   -0.0041    0.0020 C.3       1 <0>        -0.1219
      3 C3          0.7182   -0.4975   -1.2568 C.3       1 <0>        -0.0321
      4 C4          0.7386   -2.0043   -1.2651 C.2       1 <0>        -0.1430
      5 C5         -0.1634   -2.8614   -1.7921 C.2       1 <0>        -0.1247
      6 C6          0.0617   -4.2321   -1.6825 C.2       1 <0>        -0.0115
      7 C7          1.1946   -4.6565   -1.0413 C.2       1 <0>        -0.1729
      8 S1          1.9642   -3.1110   -0.5883 S.3       1 <0>         0.0302
      9 C8         -0.8996   -5.2044   -2.2443 C.2       1 <0>         0.1696
     10 N1         -2.1279   -4.9522   -2.6335 N.2       1 <0>        -0.2717
     11 N2         -2.6811   -6.0266   -3.0701 N.2       1 <0>        -0.3384
     12 C9         -1.8425   -7.0332   -2.9879 C.2       1 <0>         0.3841
     13 S2         -2.1578   -8.6987   -3.4688 S.3       1 <0>        -0.7891
     14 N3         -0.6742   -6.5454   -2.4642 N.pl3     1 <0>        -0.4542
     15 C10         0.5025   -7.2614   -2.2035 C.ar      1 <0>         0.1585
     16 C11         1.6663   -6.9643   -2.9000 C.ar      1 <0>        -0.1156
     17 C12         2.8239   -7.6714   -2.6412 C.ar      1 <0>        -0.1102
     18 C13         2.8248   -8.6747   -1.6893 C.ar      1 <0>        -0.1205
     19 C14         1.6674   -8.9732   -0.9945 C.ar      1 <0>        -0.0785
     20 C15         0.5079   -8.2651   -1.2447 C.ar      1 <0>        -0.0861
     21 C16         1.6722  -10.0678    0.0412 C.3       1 <0>        -0.1111
     22 H1          1.0039    1.9031    0.0027 H         1 <0>         0.0536
     23 H2         -0.5459    1.8868   -0.8726 H         1 <0>         0.0557
     24 H3         -0.5289    1.8773    0.9072 H         1 <0>         0.0553
     25 H4          0.5293   -0.3651    0.8851 H         1 <0>         0.0643
     26 H5         -1.0205   -0.3814    0.0098 H         1 <0>         0.0685
     27 H6          0.1910   -0.1364   -2.1398 H         1 <0>         0.0860
     28 H7          1.7408   -0.1202   -1.2645 H         1 <0>         0.0769
     29 H8         -1.0462   -2.4894   -2.2907 H         1 <0>         0.1430
     30 H9          1.5361   -5.6649   -0.8602 H         1 <0>         0.1839
     31 H10         1.6662   -6.1811   -3.6437 H         1 <0>         0.1219
     32 H11         3.7294   -7.4409   -3.1828 H         1 <0>         0.1269
     33 H12         3.7313   -9.2264   -1.4885 H         1 <0>         0.1237
     34 H13        -0.3947   -8.4952   -0.6980 H         1 <0>         0.1271
     35 H14         1.9304   -9.6473    1.0131 H         1 <0>         0.0683
     36 H15         0.6832  -10.5230    0.0934 H         1 <0>         0.0692
     37 H16         2.4066  -10.8249   -0.2337 H         1 <0>         0.0665
@<TRIPOS>BOND
     1    1    2 1
     2    1   22 1
     3    1   23 1
     4    1   24 1
     5    2    3 1
     6    2   25 1
     7    2   26 1
     8    3    4 1
     9    3   27 1
    10    3   28 1
    11    4    8 1
    12    4    5 2
    13    5    6 1
    14    5   29 1
    15    6    7 2
    16    6    9 1
    17    7    8 1
    18    7   30 1
    19    9   14 1
    20    9   10 2
    21   10   11 1
    22   11   12 2
    23   12   13 1
    24   12   14 1
    25   14   15 1
    26   15   20 ar
    27   15   16 ar
    28   16   17 ar
    29   16   31 1
    30   17   18 ar
    31   17   32 1
    32   18   19 ar
    33   18   33 1
    34   19   20 ar
    35   19   21 1
    36   20   34 1
    37   21   35 1
    38   21   36 1
    39   21   37 1
@<TRIPOS>MOLECULE
ZINC48529783
   26    27     0     0     0
SMALL
USER_CHARGES

@<TRIPOS>ATOM
      1 C1          0.0161    1.2419   -0.1076 C.ar      1 <0>        -0.1214
      2 C2          1.1794    1.9460    0.1265 C.ar      1 <0>        -0.0756
      3 C3          2.4067    1.4125   -0.2694 C.ar      1 <0>        -0.1139
      4 C4          2.4492    0.1683   -0.9006 C.ar      1 <0>        -0.0808
      5 C5          1.2783   -0.5264   -1.1291 C.ar      1 <0>        -0.0427
      6 C6          0.0639    0.0093   -0.7335 C.ar      1 <0>        -0.1070
      7 Cl1         1.3281   -2.0741   -1.9139 Cl        1 <0>        -0.0780
      8 C7          3.6574    2.1628   -0.0217 C.2       1 <0>         0.4509
      9 C8          4.9298    1.4509    0.0727 C.2       1 <0>        -0.4203
     10 C9          4.9515    0.0191    0.0655 C.1       1 <0>         0.2903
     11 N1          4.9687   -1.1167    0.0598 N.1       1 <0>        -0.5016
     12 C10         6.1279    2.1687    0.1701 C.2       1 <0>         0.4032
     13 O1          6.1075    3.5190    0.1769 O.3       1 <0>        -0.5504
     14 C11         7.3582    1.4805    0.2613 C.2       1 <0>        -0.1561
     15 C12         8.6479    1.9970    0.3704 C.2       1 <0>        -0.0879
     16 C13         9.6554    1.0670    0.4416 C.2       1 <0>        -0.1590
     17 C14         9.3403   -0.2528    0.4025 C.2       1 <0>        -0.2732
     18 S1          7.6654   -0.2755    0.2749 S.3       1 <0>         0.2519
     19 Br1         8.9880    3.8566    0.4166 Br        1 <0>        -0.0131
     20 O2          3.6263    3.3739    0.1036 O.2       1 <0>        -0.4709
     21 H1         -0.9335    1.6521    0.2026 H         1 <0>         0.1311
     22 H2          1.1402    2.9085    0.6150 H         1 <0>         0.1359
     23 H3          3.3958   -0.2498   -1.2097 H         1 <0>         0.1455
     24 H4         -0.8495   -0.5379   -0.9140 H         1 <0>         0.1290
     25 H5         10.6851    1.3813    0.5273 H         1 <0>         0.1321
     26 H6         10.0131   -1.0964    0.4474 H         1 <0>         0.1821
@<TRIPOS>BOND
     1    1    6 ar
     2    1    2 ar
     3    1   21 1
     4    2    3 ar
     5    2   22 1
     6    3    4 ar
     7    3    8 1
     8    4    5 ar
     9    4   23 1
    10    5    6 ar
    11    5    7 1
    12    6   24 1
    13    8    9 1
    14    8   20 2
    15    9   10 1
    16    9   12 2
    17   10   11 3
    18   12   13 1
    19   12   14 1
    20   14   18 1
    21   14   15 2
    22   15   16 1
    23   15   19 1
    24   16   17 2
    25   16   25 1
    26   17   18 1
    27   17   26 1
@<TRIPOS>MOLECULE
ZINC13519899
   32    33     0     0     0
SMALL
USER_CHARGES

@<TRIPOS>ATOM
      1 C1          0.1194    1.4916   -0.0119 C.3       1 <0>        -0.1036
      2 C2         -0.0892   -0.0007    0.0103 C.ar      1 <0>        -0.0495
      3 C3         -0.4799   -0.6801   -1.1378 C.ar      1 <0>        -0.2337
      4 C4         -0.6631   -2.0476   -1.0885 C.ar      1 <0>         0.1293
      5 N1         -0.4726   -2.7173    0.0317 N.ar      1 <0>        -0.4195
      6 C5         -0.0988   -2.1066    1.1522 C.ar      1 <0>         0.3432
      7 C6          0.1094   -0.7236    1.1702 C.ar      1 <0>        -0.1912
      8 N2          0.0880   -2.8348    2.2908 N.2       1 <0>        -0.6214
      9 C7         -0.1018   -4.1370    2.2776 C.2       1 <0>         0.5369
     10 N3          0.0862   -4.8697    3.4233 N.pl3     1 <0>        -0.6553
     11 C8         -0.0002   -6.2659    3.3831 C.ar      1 <0>         0.2083
     12 C9          0.5960   -6.9702    2.3454 C.ar      1 <0>        -0.0610
     13 C10         0.5093   -8.3481    2.3080 C.ar      1 <0>        -0.0829
     14 C11        -0.1710   -9.0275    3.3032 C.ar      1 <0>        -0.0961
     15 C12        -0.7662   -8.3293    4.3386 C.ar      1 <0>        -0.0816
     16 C13        -0.6779   -6.9507    4.3845 C.ar      1 <0>        -0.0624
     17 Cl1        -1.4183   -6.0753    5.6880 Cl        1 <0>        -0.0689
     18 Br1        -0.2877  -10.9141    3.2474 Br        1 <0>        -0.0617
     19 S1         -0.5971   -4.9401    0.7896 S.3       1 <0>        -0.7665
     20 C14        -1.0872   -2.7855   -2.3322 C.3       1 <0>        -0.0897
     21 H1          1.1546    1.7100   -0.2740 H         1 <0>         0.0642
     22 H2         -0.5448    1.9404   -0.7505 H         1 <0>         0.0606
     23 H3         -0.1008    1.9039    0.9729 H         1 <0>         0.0610
     24 H4         -0.6393   -0.1425   -2.0608 H         1 <0>         0.1080
     25 H5          0.4171   -0.2276    2.0789 H         1 <0>         0.1151
     26 H6          1.1269   -6.4409    1.5679 H         1 <0>         0.1567
     27 H7          0.9726   -8.8959    1.5008 H         1 <0>         0.1337
     28 H8         -1.2968   -8.8622    5.1138 H         1 <0>         0.1362
     29 H9         -0.2033   -3.1046   -2.8845 H         1 <0>         0.0626
     30 H10        -1.6763   -3.6591   -2.0532 H         1 <0>         0.0747
     31 H11        -1.6886   -2.1265   -2.9583 H         1 <0>         0.0538
     32 H12         0.2789   -4.4197    4.2607 H         1 <0>         0.4008
@<TRIPOS>BOND
     1    1    2 1
     2    1   21 1
     3    1   22 1
     4    1   23 1
     5    2    7 ar
     6    2    3 ar
     7    3    4 ar
     8    3   24 1
     9    4    5 ar
    10    4   20 1
    11    5    6 ar
    12    6    7 ar
    13    6    8 1
    14    7   25 1
    15    8    9 2
    16    9   10 1
    17    9   19 1
    18   10   11 1
    19   10   32 1
    20   11   16 ar
    21   11   12 ar
    22   12   13 ar
    23   12   26 1
    24   13   14 ar
    25   13   27 1
    26   14   15 ar
    27   14   18 1
    28   15   16 ar
    29   15   28 1
    30   16   17 1
    31   20   29 1
    32   20   30 1
    33   20   31 1
@<TRIPOS>MOLECULE
ZINC06176748
   35    37     0     0     0
SMALL
USER_CHARGES
5-(3-chlorophenyl)-4-(4-ethoxyphenyl)-1,2,4-triazole-3-thiol
@<TRIPOS>ATOM
      1 C1         -0.8839    7.7117    0.0531 C.3       1 <0>        -0.1532
      2 C2         -1.1085    6.1992    0.1060 C.3       1 <0>         0.0508
      3 O1          0.1360    5.5256   -0.0931 O.3       1 <0>        -0.3146
      4 C3          0.1120    4.1665   -0.0750 C.ar      1 <0>         0.1317
      5 C4          1.2849    3.4496   -0.2618 C.ar      1 <0>        -0.1400
      6 C5          1.2610    2.0691   -0.2435 C.ar      1 <0>        -0.0479
      7 C6          0.0629    1.3986   -0.0385 C.ar      1 <0>         0.1172
      8 C7         -1.1116    2.1162    0.1422 C.ar      1 <0>        -0.0666
      9 C8         -1.0856    3.4968    0.1299 C.ar      1 <0>        -0.1988
     10 N1          0.0381   -0.0042   -0.0198 N.pl3     1 <0>        -0.4483
     11 C9         -0.5491   -0.8393   -0.9447 C.2       1 <0>         0.1455
     12 N2         -0.3325   -2.0707   -0.5438 N.2       1 <0>        -0.2635
     13 N3          0.3322   -2.0646    0.5559 N.2       1 <0>        -0.3366
     14 C10         0.5868   -0.8284    0.9238 C.2       1 <0>         0.3861
     15 S1          1.4703   -0.3270    2.3634 S.3       1 <0>        -0.7839
     16 C11        -1.2841   -0.4269   -2.1590 C.ar      1 <0>         0.0349
     17 C12        -1.1326    0.8653   -2.6652 C.ar      1 <0>        -0.1126
     18 C13        -1.8178    1.2431   -3.8012 C.ar      1 <0>        -0.1018
     19 C14        -2.6616    0.3476   -4.4341 C.ar      1 <0>        -0.1166
     20 C15        -2.8208   -0.9340   -3.9349 C.ar      1 <0>        -0.0306
     21 C16        -2.1368   -1.3259   -2.8010 C.ar      1 <0>        -0.0824
     22 Cl1        -3.8827   -2.0499   -4.7353 Cl        1 <0>        -0.0737
     23 H1         -1.8419    8.2302    0.2064 H         1 <0>         0.0772
     24 H2         -0.4709    7.9869   -0.9286 H         1 <0>         0.0659
     25 H3         -0.1775    8.0053    0.8435 H         1 <0>         0.0667
     26 H4         -1.5215    5.9240    1.0877 H         1 <0>         0.0632
     27 H5         -1.8150    5.9055   -0.6844 H         1 <0>         0.0624
     28 H6          2.2170    3.9714   -0.4212 H         1 <0>         0.1368
     29 H7          2.1742    1.5112   -0.3889 H         1 <0>         0.1351
     30 H8         -2.0447    1.5949    0.2968 H         1 <0>         0.1260
     31 H9         -1.9986    4.0552    0.2749 H         1 <0>         0.1321
     32 H10        -0.4773    1.5668   -2.1703 H         1 <0>         0.1317
     33 H11        -1.6983    2.2413   -4.1955 H         1 <0>         0.1324
     34 H12        -3.1986    0.6496   -5.3211 H         1 <0>         0.1316
     35 H13        -2.2617   -2.3256   -2.4119 H         1 <0>         0.1441
@<TRIPOS>BOND
     1    1    2 1
     2    1   23 1
     3    1   24 1
     4    1   25 1
     5    2    3 1
     6    2   26 1
     7    2   27 1
     8    3    4 1
     9    4    9 ar
    10    4    5 ar
    11    5    6 ar
    12    5   28 1
    13    6    7 ar
    14    6   29 1
    15    7    8 ar
    16    7   10 1
    17    8    9 ar
    18    8   30 1
    19    9   31 1
    20   10   14 1
    21   10   11 1
    22   11   16 1
    23   11   12 2
    24   12   13 1
    25   13   14 2
    26   14   15 1
    27   16   21 ar
    28   16   17 ar
    29   17   18 ar
    30   17   32 1
    31   18   19 ar
    32   18   33 1
    33   19   20 ar
    34   19   34 1
    35   20   21 ar
    36   20   22 1
    37   21   35 1
@<TRIPOS>MOLECULE
ZINC32754900
   36    38     0     0     0
SMALL
USER_CHARGES
N-(2,6-difluorophenyl)-2-phenyl-benzenesulfonamide
@<TRIPOS>ATOM
      1 C1          4.8316   -1.2691   -1.0898 C.ar      1 <0>        -0.1199
      2 C2          4.5976   -0.3730   -2.1172 C.ar      1 <0>        -0.1215
      3 C3          3.6113    0.5841   -1.9903 C.ar      1 <0>        -0.0897
      4 C4          2.8503    0.6463   -0.8247 C.ar      1 <0>        -0.0533
      5 C5          3.0935   -0.2558    0.2090 C.ar      1 <0>        -0.1261
      6 C6          4.0788   -1.2122    0.0693 C.ar      1 <0>        -0.1101
      7 C7          1.7889    1.6734   -0.6823 C.ar      1 <0>         0.0280
      8 C8          2.0918    3.0217   -0.8625 C.ar      1 <0>        -0.1276
      9 C9          1.1008    3.9727   -0.7284 C.ar      1 <0>        -0.0974
     10 C10        -0.1913    3.5898   -0.4158 C.ar      1 <0>        -0.1363
     11 C11        -0.4986    2.2527   -0.2416 C.ar      1 <0>        -0.0408
     12 C12         0.4860    1.2934   -0.3676 C.ar      1 <0>        -0.6107
     13 S1          0.0942   -0.4090   -0.1381 S.o2      1 <0>         2.6037
     14 O1          0.6334   -1.1039   -1.2542 O.2       1 <0>        -1.0110
     15 O2          0.4453   -0.7296    1.2010 O.2       1 <0>        -0.9966
     16 N1         -1.5524   -0.5509   -0.2426 N.2       1 <0>        -1.0483
     17 C13        -2.1972   -0.3371   -1.4670 C.ar      1 <0>         0.2015
     18 C14        -1.4988    0.2124   -2.5357 C.ar      1 <0>        -0.0235
     19 C15        -2.1379    0.4172   -3.7453 C.ar      1 <0>        -0.1127
     20 C16        -3.4726    0.0857   -3.8888 C.ar      1 <0>        -0.1676
     21 C17        -4.1724   -0.4558   -2.8262 C.ar      1 <0>        -0.1256
     22 C18        -3.5389   -0.6686   -1.6151 C.ar      1 <0>         0.0536
     23 F1         -4.2235   -1.1973   -0.5773 F         1 <0>        -0.1377
     24 F2         -0.1960    0.5413   -2.3948 F         1 <0>        -0.1222
     25 H1          5.6046   -2.0162   -1.1931 H         1 <0>         0.1198
     26 H2          5.1881   -0.4221   -3.0202 H         1 <0>         0.1210
     27 H3          3.4295    1.2833   -2.7931 H         1 <0>         0.1207
     28 H4          2.5096   -0.2092    1.1163 H         1 <0>         0.1422
     29 H5          4.2654   -1.9145    0.8682 H         1 <0>         0.1238
     30 H6          3.1002    3.3218   -1.1062 H         1 <0>         0.1217
     31 H7          1.3344    5.0179   -0.8682 H         1 <0>         0.1208
     32 H8         -0.9638    4.3373   -0.3122 H         1 <0>         0.1216
     33 H9         -1.5099    1.9588   -0.0021 H         1 <0>         0.1323
     34 H10        -1.5947    0.8400   -4.5775 H         1 <0>         0.1208
     35 H11        -3.9700    0.2506   -4.8332 H         1 <0>         0.1222
     36 H12        -5.2148   -0.7134   -2.9422 H         1 <0>         0.1249
@<TRIPOS>BOND
     1    1    6 ar
     2    1    2 ar
     3    1   25 1
     4    2    3 ar
     5    2   26 1
     6    3    4 ar
     7    3   27 1
     8    4    5 ar
     9    4    7 1
    10    5    6 ar
    11    5   28 1
    12    6   29 1
    13    7   12 ar
    14    7    8 ar
    15    8    9 ar
    16    8   30 1
    17    9   10 ar
    18    9   31 1
    19   10   11 ar
    20   10   32 1
    21   11   12 ar
    22   11   33 1
    23   12   13 1
    24   13   14 2
    25   13   15 2
    26   13   16 1
    27   16   17 1
    28   17   22 ar
    29   17   18 ar
    30   18   19 ar
    31   18   24 1
    32   19   20 ar
    33   19   34 1
    34   20   21 ar
    35   20   35 1
    36   21   22 ar
    37   21   36 1
    38   22   23 1
@<TRIPOS>MOLECULE
ZINC37335936
   27    29     0     0     0
SMALL
USER_CHARGES

@<TRIPOS>ATOM
      1 C1         -0.0169    1.3963    0.0097 C.ar      1 <0>        -0.1444
      2 C2          1.1799    2.0809    0.0020 C.ar      1 <0>         0.1018
      3 N1          2.3305    1.4346   -0.0125 N.ar      1 <0>        -0.4918
      4 C3          2.3936    0.1164   -0.0202 C.ar      1 <0>         0.1058
      5 C4          1.2458   -0.6477   -0.0133 C.ar      1 <0>        -0.1776
      6 C5          0.0021   -0.0041    0.0020 C.ar      1 <0>         0.0678
      7 C6         -1.2547   -0.7806    0.0103 C.2       1 <0>         0.1487
      8 N2         -2.4531   -0.3233    0.2925 N.2       1 <0>        -0.2492
      9 N3         -3.3170   -1.2705    0.2036 N.2       1 <0>        -0.3341
     10 C7         -2.7238   -2.3930   -0.1413 C.2       1 <0>         0.4037
     11 N4         -1.3919   -2.1201   -0.2823 N.pl3     1 <0>        -0.4542
     12 C8         -0.3764   -3.0171   -0.6457 C.ar      1 <0>         0.1810
     13 C9         -0.0438   -3.1869   -1.9836 C.ar      1 <0>         0.0018
     14 C10         0.9573   -4.0715   -2.3387 C.ar      1 <0>        -0.0945
     15 C11         1.6276   -4.7878   -1.3629 C.ar      1 <0>        -0.0082
     16 C12         1.2982   -4.6211   -0.0293 C.ar      1 <0>        -0.0962
     17 C13         0.3024   -3.7329    0.3322 C.ar      1 <0>        -0.0037
     18 Cl1        -0.1050   -3.5186    2.0060 Cl        1 <0>        -0.0206
     19 Cl2         2.8839   -5.8983   -1.8126 Cl        1 <0>        -0.0438
     20 Cl3        -0.8851   -2.2894   -3.2085 Cl        1 <0>        -0.0218
     21 S1         -3.5021   -3.9552   -0.3829 S.3       1 <0>        -0.7693
     22 H1         -0.9547    1.9318    0.0260 H         1 <0>         0.1456
     23 H2          1.1758    3.1609    0.0074 H         1 <0>         0.1586
     24 H3          3.3575   -0.3706   -0.0324 H         1 <0>         0.1549
     25 H4          1.3050   -1.7261   -0.0200 H         1 <0>         0.1256
     26 H5          1.2163   -4.2039   -3.3788 H         1 <0>         0.1567
     27 H6          1.8228   -5.1817    0.7302 H         1 <0>         0.1573
@<TRIPOS>BOND
     1    1    6 ar
     2    1    2 ar
     3    1   22 1
     4    2    3 ar
     5    2   23 1
     6    3    4 ar
     7    4    5 ar
     8    4   24 1
     9    5    6 ar
    10    5   25 1
    11    6    7 1
    12    7   11 1
    13    7    8 2
    14    8    9 1
    15    9   10 2
    16   10   21 1
    17   10   11 1
    18   11   12 1
    19   12   17 ar
    20   12   13 ar
    21   13   14 ar
    22   13   20 1
    23   14   15 ar
    24   14   26 1
    25   15   16 ar
    26   15   19 1
    27   16   17 ar
    28   16   27 1
    29   17   18 1
@<TRIPOS>MOLECULE
ZINC40446693
   36    37     0     0     0
SMALL
USER_CHARGES

@<TRIPOS>ATOM
      1 C1         -0.0187    1.5258    0.0104 C.3       1 <0>        -0.1294
      2 C2          0.0021   -0.0041    0.0020 C.3       1 <0>        -0.1363
      3 S1          0.8794   -0.6050    1.4716 S.3       1 <0>        -0.0779
      4 C3          0.8178   -2.3591    1.3173 C.ar      1 <0>        -0.1494
      5 C4          0.1898   -2.9399    0.2251 C.ar      1 <0>        -0.0906
      6 C5          0.1432   -4.3164    0.1060 C.ar      1 <0>        -0.2123
      7 C6          0.7208   -5.1181    1.0732 C.ar      1 <0>        -0.0679
      8 C7          1.3485   -4.5479    2.1655 C.ar      1 <0>        -0.2519
      9 C8          1.4056   -3.1683    2.2902 C.ar      1 <0>         0.3046
     10 N1          2.0460   -2.5888    3.3921 N.2       1 <0>        -1.0617
     11 S2          2.7428   -3.5514    4.5454 S.o2      1 <0>         2.5945
     12 O1          1.6841   -4.2537    5.1820 O.2       1 <0>        -1.0307
     13 O2          3.8290   -4.2176    3.9164 O.2       1 <0>        -1.0090
     14 C9          3.4422   -2.4849    5.7612 C.ar      1 <0>        -0.6010
     15 C10         2.9467   -2.4890    7.0517 C.ar      1 <0>        -0.0237
     16 C11         3.4956   -1.6527    8.0056 C.ar      1 <0>        -0.1354
     17 C12         4.5403   -0.8118    7.6695 C.ar      1 <0>        -0.0487
     18 C13         5.0363   -0.8070    6.3796 C.ar      1 <0>        -0.1216
     19 C14         4.4907   -1.6476    5.4259 C.ar      1 <0>         0.0100
     20 Br1         5.1736   -1.6467    3.6625 Br        1 <0>        -0.0109
     21 C15         5.1380    0.1001    8.7099 C.3       1 <0>        -0.1150
     22 H1          1.0039    1.9031    0.0027 H         1 <0>         0.0611
     23 H2         -0.5459    1.8868   -0.8726 H         1 <0>         0.0604
     24 H3         -0.5289    1.8773    0.9072 H         1 <0>         0.0610
     25 H4         -1.0205   -0.3814    0.0098 H         1 <0>         0.0736
     26 H5          0.5123   -0.3556   -0.8948 H         1 <0>         0.0736
     27 H6         -0.2630   -2.3167   -0.5319 H         1 <0>         0.1042
     28 H7         -0.3461   -4.7669   -0.7449 H         1 <0>         0.1027
     29 H8          0.6812   -6.1929    0.9755 H         1 <0>         0.1030
     30 H9          1.7982   -5.1773    2.9192 H         1 <0>         0.1003
     31 H10         2.1304   -3.1454    7.3146 H         1 <0>         0.1447
     32 H11         3.1080   -1.6559    9.0137 H         1 <0>         0.1310
     33 H12         5.8524   -0.1501    6.1172 H         1 <0>         0.1341
     34 H13         5.9548   -0.4134    9.2170 H         1 <0>         0.0743
     35 H14         5.5185    1.0008    8.2281 H         1 <0>         0.0700
     36 H15         4.3730    0.3725    9.4369 H         1 <0>         0.0703
@<TRIPOS>BOND
     1    1    2 1
     2    1   22 1
     3    1   23 1
     4    1   24 1
     5    2    3 1
     6    2   25 1
     7    2   26 1
     8    3    4 1
     9    4    9 ar
    10    4    5 ar
    11    5    6 ar
    12    5   27 1
    13    6    7 ar
    14    6   28 1
    15    7    8 ar
    16    7   29 1
    17    8    9 ar
    18    8   30 1
    19    9   10 1
    20   10   11 1
    21   11   12 2
    22   11   13 2
    23   11   14 1
    24   14   19 ar
    25   14   15 ar
    26   15   16 ar
    27   15   31 1
    28   16   17 ar
    29   16   32 1
    30   17   18 ar
    31   17   21 1
    32   18   19 ar
    33   18   33 1
    34   19   20 1
    35   21   34 1
    36   21   35 1
    37   21   36 1
@<TRIPOS>MOLECULE
ZINC07052710
   29    30     0     0     0
SMALL
USER_CHARGES

@<TRIPOS>ATOM
      1 C1         -0.0184    1.5028    0.0103 C.3       1 <0>        -0.0789
      2 C2          0.0021   -0.0041    0.0020 C.ar      1 <0>        -0.1463
      3 C3          0.0057   -0.6888   -1.1976 C.ar      1 <0>        -0.0494
      4 C4          0.0240   -2.0720   -1.2060 C.ar      1 <0>        -0.1836
      5 C5          0.0391   -2.7738   -0.0134 C.ar      1 <0>        -0.0373
      6 C6          0.0355   -2.0947    1.1889 C.ar      1 <0>        -0.2587
      7 C7          0.0230   -0.7055    1.2005 C.ar      1 <0>         0.2964
      8 N1          0.0256   -0.0156    2.4154 N.2       1 <0>        -1.0739
      9 S1          0.0505   -0.8536    3.8435 S.o2      1 <0>         2.6011
     10 O1         -1.1849   -1.5507    3.9270 O.2       1 <0>        -1.0207
     11 O2          1.3054   -1.5177    3.9029 O.2       1 <0>        -1.0141
     12 C8          0.0474    0.3344    5.1448 C.ar      1 <0>        -0.6556
     13 C9         -1.0278    0.4086    6.0103 C.ar      1 <0>         0.0098
     14 C10        -1.0311    1.3400    7.0313 C.ar      1 <0>        -0.1480
     15 C11         0.0422    2.1992    7.1885 C.ar      1 <0>         0.0292
     16 C12         1.1190    2.1261    6.3238 C.ar      1 <0>        -0.1748
     17 C13         1.1244    1.1896    5.3039 C.ar      1 <0>         0.2172
     18 F1          2.1778    1.1140    4.4614 F         1 <0>        -0.1062
     19 Cl1         0.0368    3.3693    8.4710 Cl        1 <0>        -0.0582
     20 Br1         0.0277   -3.0058   -2.8504 Br        1 <0>        -0.0999
     21 H1          1.0042    1.8801    0.0026 H         1 <0>         0.0504
     22 H2         -0.5455    1.8639   -0.8728 H         1 <0>         0.0408
     23 H3         -0.5286    1.8543    0.9071 H         1 <0>         0.0738
     24 H4         -0.0060   -0.1438   -2.1299 H         1 <0>         0.1151
     25 H5          0.0533   -3.8536   -0.0230 H         1 <0>         0.1122
     26 H6          0.0470   -2.6429    2.1194 H         1 <0>         0.1046
     27 H7         -1.8660   -0.2615    5.8884 H         1 <0>         0.1588
     28 H8         -1.8720    1.3976    7.7065 H         1 <0>         0.1455
     29 H9          1.9568    2.7965    6.4463 H         1 <0>         0.1508
@<TRIPOS>BOND
     1    1    2 1
     2    1   21 1
     3    1   22 1
     4    1   23 1
     5    2    7 ar
     6    2    3 ar
     7    3    4 ar
     8    3   24 1
     9    4    5 ar
    10    4   20 1
    11    5    6 ar
    12    5   25 1
    13    6    7 ar
    14    6   26 1
    15    7    8 1
    16    8    9 1
    17    9   10 2
    18    9   11 2
    19    9   12 1
    20   12   17 ar
    21   12   13 ar
    22   13   14 ar
    23   13   27 1
    24   14   15 ar
    25   14   28 1
    26   15   16 ar
    27   15   19 1
    28   16   17 ar
    29   16   29 1
    30   17   18 1
@<TRIPOS>MOLECULE
ZINC16777062
   32    33     0     0     0
SMALL
USER_CHARGES

@<TRIPOS>ATOM
      1 C1         -0.3017    0.7536   -0.2690 C.ar      1 <0>        -0.0763
      2 C2          0.8282    1.5433   -0.3725 C.ar      1 <0>        -0.1456
      3 C3          2.0825    0.9634   -0.3353 C.ar      1 <0>        -0.0187
      4 C4          2.2069   -0.4061   -0.1942 C.ar      1 <0>        -0.6389
      5 C5          1.0770   -1.1957   -0.0897 C.ar      1 <0>        -0.0221
      6 C6         -0.1773   -0.6159   -0.1283 C.ar      1 <0>        -0.1453
      7 S1          3.8056   -1.1454   -0.1479 S.o2      1 <0>         2.6448
      8 O1          3.6404   -2.4962   -0.5570 O.2       1 <0>        -0.9730
      9 O2          4.6864   -0.2503   -0.8130 O.2       1 <0>        -0.9628
     10 N1          4.2807   -1.1859    1.4380 N.2       1 <0>        -1.0160
     11 C7          5.3821   -1.7781    1.7682 C.2       1 <0>         0.5334
     12 N2          6.2358   -2.2305    0.7951 N.2       1 <0>        -0.7585
     13 C8          6.9356   -1.3170   -0.0019 C.ar      1 <0>         0.2148
     14 C9          6.9027    0.0377    0.2998 C.ar      1 <0>        -0.1633
     15 C10         7.5947    0.9368   -0.4883 C.ar      1 <0>        -0.0834
     16 C11         8.3202    0.4898   -1.5773 C.ar      1 <0>        -0.1834
     17 C12         8.3559   -0.8584   -1.8823 C.ar      1 <0>        -0.1224
     18 C13         7.6702   -1.7650   -1.0944 C.ar      1 <0>         0.0267
     19 F1          7.7095   -3.0829   -1.3889 F         1 <0>        -0.1487
     20 C14         5.7273   -1.9708    3.2225 C.3       1 <0>         0.1971
     21 Cl1         4.4938   -1.1468    4.2473 Cl        1 <0>        -0.0847
     22 Cl2         5.7483   -3.7323    3.6068 Cl        1 <0>        -0.0841
     23 Cl3         7.3527   -1.2641    3.5532 Cl        1 <0>        -0.0795
     24 H1         -1.2815    1.2071   -0.2936 H         1 <0>         0.1260
     25 H2          0.7310    2.6132   -0.4828 H         1 <0>         0.1288
     26 H3          2.9652    1.5802   -0.4169 H         1 <0>         0.1390
     27 H4          1.1742   -2.2656    0.0202 H         1 <0>         0.1365
     28 H5         -1.0601   -1.2328   -0.0471 H         1 <0>         0.1287
     29 H6          6.3362    0.3884    1.1497 H         1 <0>         0.1046
     30 H7          7.5687    1.9907   -0.2537 H         1 <0>         0.1043
     31 H8          8.8601    1.1955   -2.1913 H         1 <0>         0.1078
     32 H9          8.9232   -1.2043   -2.7337 H         1 <0>         0.1143
@<TRIPOS>BOND
     1    1    6 ar
     2    1    2 ar
     3    1   24 1
     4    2    3 ar
     5    2   25 1
     6    3    4 ar
     7    3   26 1
     8    4    5 ar
     9    4    7 1
    10    5    6 ar
    11    5   27 1
    12    6   28 1
    13    7    8 2
    14    7    9 2
    15    7   10 1
    16   10   11 2
    17   11   12 1
    18   11   20 1
    19   12   13 1
    20   13   18 ar
    21   13   14 ar
    22   14   15 ar
    23   14   29 1
    24   15   16 ar
    25   15   30 1
    26   16   17 ar
    27   16   31 1
    28   17   18 ar
    29   17   32 1
    30   18   19 1
    31   20   21 1
    32   20   22 1
    33   20   23 1
@<TRIPOS>MOLECULE
ZINC04807112
   43    45     0     0     0
SMALL
USER_CHARGES
(5S)-3-[(3,4-dichlorophenyl)methylamino]-5-(4-methoxyphenyl)cyclohex-2-en-1-one
@<TRIPOS>ATOM
      1 C1         -6.7850    4.2127    9.0212 C.3       1 <0>         0.0255
      2 O1         -5.9612    5.2406    8.4672 O.3       1 <0>        -0.3219
      3 C2         -5.5285    5.0639    7.1912 C.ar      1 <0>         0.1111
      4 C3         -4.7252    6.0225    6.5908 C.ar      1 <0>        -0.1506
      5 C4         -4.2870    5.8407    5.2934 C.ar      1 <0>        -0.0786
      6 C5         -4.6487    4.7047    4.5931 C.ar      1 <0>        -0.0973
      7 C6         -5.4538    3.7505    5.1872 C.ar      1 <0>        -0.0741
      8 C7         -5.8897    3.9247    6.4865 C.ar      1 <0>        -0.2052
      9 C8         -4.1696    4.5092    3.1777 C.3       1 <0>        -0.0319
     10 H1         -3.5578    5.3794    2.8977 H         1 <0>         0.0781
     11 C9         -3.3385    3.2260    3.0900 C.3       1 <0>        -0.0533
     12 C10        -2.9200    2.9961    1.6624 C.2       1 <0>         0.2461
     13 C11        -3.6790    3.4296    0.6329 C.2       1 <0>        -0.5395
     14 C12        -4.8855    4.1044    0.8430 C.2       1 <0>         0.3813
     15 O2         -5.5431    4.4733   -0.1102 O.3       1 <0>        -0.5954
     16 C13        -5.3750    4.3831    2.2406 C.3       1 <0>        -0.1477
     17 N1         -1.7518    2.3438    1.4043 N.2       1 <0>        -0.6975
     18 C14        -1.3321    2.1131    0.0199 C.3       1 <0>         0.1083
     19 C15        -0.0167    1.3778    0.0096 C.ar      1 <0>        -0.0104
     20 C16         1.1707    2.0862    0.0021 C.ar      1 <0>        -0.0962
     21 C17         2.3777    1.4131   -0.0131 C.ar      1 <0>        -0.1008
     22 C18         2.3983    0.0299   -0.0208 C.ar      1 <0>        -0.0473
     23 C19         1.2094   -0.6794   -0.0132 C.ar      1 <0>        -0.0282
     24 C20         0.0021   -0.0041    0.0020 C.ar      1 <0>        -0.0922
     25 Cl1         1.2335   -2.4152   -0.0222 Cl        1 <0>        -0.0647
     26 Cl2         3.9142   -0.8161   -0.0393 Cl        1 <0>        -0.0680
     27 H2         -7.0623    4.4805   10.0514 H         1 <0>         0.0972
     28 H3         -6.2317    3.2620    9.0257 H         1 <0>         0.0548
     29 H4         -7.6950    4.1044    8.4128 H         1 <0>         0.0544
     30 H5         -4.4424    6.9100    7.1374 H         1 <0>         0.1263
     31 H6         -3.6616    6.5866    4.8256 H         1 <0>         0.1288
     32 H7         -5.7389    2.8663    4.6365 H         1 <0>         0.1258
     33 H8         -6.5146    3.1768    6.9518 H         1 <0>         0.1240
     34 H9         -2.4443    3.3243    3.7230 H         1 <0>         0.0691
     35 H10        -3.9416    2.3741    3.4371 H         1 <0>         0.0672
     36 H11        -3.3262    3.2397   -0.3915 H         1 <0>         0.0853
     37 H12        -6.0179    3.5572    2.5792 H         1 <0>         0.0737
     38 H13        -5.9480    5.3220    2.2518 H         1 <0>         0.0669
     39 H14        -2.0929    1.5109   -0.4983 H         1 <0>         0.0346
     40 H15        -1.2164    3.0788   -0.4940 H         1 <0>         0.0364
     41 H16         1.1550    3.1660    0.0077 H         1 <0>         0.1334
     42 H17         3.3048    1.9671   -0.0194 H         1 <0>         0.1360
     43 H18        -0.9258   -0.5567    0.0076 H         1 <0>         0.1366
@<TRIPOS>BOND
     1    1    2 1
     2    1   27 1
     3    1   28 1
     4    1   29 1
     5    2    3 1
     6    3    8 ar
     7    3    4 ar
     8    4    5 ar
     9    4   30 1
    10    5    6 ar
    11    5   31 1
    12    6    7 ar
    13    6    9 1
    14    7    8 ar
    15    7   32 1
    16    8   33 1
    17    9   10 1
    18    9   16 1
    19    9   11 1
    20   11   12 1
    21   11   34 1
    22   11   35 1
    23   12   13 1
    24   12   17 2
    25   13   14 2
    26   13   36 1
    27   14   15 1
    28   14   16 1
    29   16   37 1
    30   16   38 1
    31   17   18 1
    32   18   19 1
    33   18   39 1
    34   18   40 1
    35   19   24 ar
    36   19   20 ar
    37   20   21 ar
    38   20   41 1
    39   21   22 ar
    40   21   42 1
    41   22   23 ar
    42   22   26 1
    43   23   24 ar
    44   23   25 1
    45   24   43 1
@<TRIPOS>MOLECULE
ZINC33297816
   44    46     0     0     0
SMALL
USER_CHARGES
4-(4-tert-butylthiazol-2-yl)-N-(2-fluoro-4-methyl-phenyl)thiophene-2-sulfonamide
@<TRIPOS>ATOM
      1 C1         -6.1764   -3.9086    5.0539 C.3       1 <0>        -0.0977
      2 C2         -5.0563   -4.3130    4.1303 C.ar      1 <0>        -0.1419
      3 C3         -5.3348   -4.6709    2.8240 C.ar      1 <0>        -0.0937
      4 C4         -4.3111   -5.0422    1.9739 C.ar      1 <0>        -0.2122
      5 C5         -3.0005   -5.0560    2.4317 C.ar      1 <0>         0.1992
      6 C6         -2.7234   -4.7012    3.7476 C.ar      1 <0>         0.0523
      7 C7         -3.7526   -4.3256    4.5913 C.ar      1 <0>        -0.1325
      8 F1         -1.4504   -4.7190    4.1995 F         1 <0>        -0.1440
      9 N1         -1.9622   -5.4314    1.5735 N.2       1 <0>        -1.0389
     10 S1         -2.0276   -5.0281   -0.0313 S.o2      1 <0>         2.6008
     11 O1         -3.2746   -5.5040   -0.5191 O.2       1 <0>        -1.0252
     12 O2         -0.7866   -5.4224   -0.6001 O.2       1 <0>        -0.9834
     13 C8         -2.0884   -3.2697   -0.1245 C.2       1 <0>        -0.6877
     14 C9         -1.0664   -2.3894   -0.2036 C.2       1 <0>        -0.0378
     15 C10        -1.3507   -1.0268   -0.2681 C.2       1 <0>        -0.0810
     16 C11        -2.6623   -0.6336   -0.2428 C.2       1 <0>        -0.1198
     17 S2         -3.5153   -2.1980   -0.1379 S.3       1 <0>         0.1829
     18 C12        -0.2631   -0.0299   -0.3555 C.2       1 <0>         0.1915
     19 N2         -0.3369    1.2923   -0.4243 N.2       1 <0>        -0.5000
     20 C13         0.7471    2.0319   -0.4982 C.2       1 <0>         0.0744
     21 C14         1.9699    1.4422   -0.5049 C.2       1 <0>        -0.2153
     22 S3          1.5065   -0.2818   -0.3975 S.3       1 <0>         0.0081
     23 C15         0.6327    3.5325   -0.5759 C.3       1 <0>         0.0008
     24 C16         0.9220    3.9927   -2.0060 C.3       1 <0>        -0.1375
     25 C17        -0.7829    3.9573   -0.1800 C.3       1 <0>        -0.1279
     26 C18         1.6427    4.1711    0.3796 C.3       1 <0>        -0.1403
     27 H1         -7.1334   -3.9595    4.5139 H         1 <0>         0.0575
     28 H2         -6.0082   -2.8801    5.4058 H         1 <0>         0.0566
     29 H3         -6.2052   -4.5911    5.9161 H         1 <0>         0.0569
     30 H4         -6.3543   -4.6604    2.4678 H         1 <0>         0.1111
     31 H5         -4.5302   -5.3218    0.9540 H         1 <0>         0.1533
     32 H6         -3.5386   -4.0458    5.6123 H         1 <0>         0.1165
     33 H7         -0.0439   -2.7368   -0.2163 H         1 <0>         0.1440
     34 H8         -3.0738    0.3643   -0.2784 H         1 <0>         0.1967
     35 H9          2.9510    1.8902   -0.5598 H         1 <0>         0.1935
     36 H10         0.8385    5.0881   -2.0627 H         1 <0>         0.0614
     37 H11         0.1958    3.5336   -2.6929 H         1 <0>         0.0569
     38 H12         1.9397    3.6873   -2.2906 H         1 <0>         0.0558
     39 H13        -0.8664    5.0527   -0.2367 H         1 <0>         0.0506
     40 H14        -0.9909    3.6265    0.8482 H         1 <0>         0.0553
     41 H15        -1.5091    3.4982   -0.8669 H         1 <0>         0.0639
     42 H16         1.5592    5.2665    0.3229 H         1 <0>         0.0622
     43 H17         2.6604    3.8657    0.0950 H         1 <0>         0.0571
     44 H18         1.4346    3.8402    1.4078 H         1 <0>         0.0577
@<TRIPOS>BOND
     1    1    2 1
     2    1   27 1
     3    1   28 1
     4    1   29 1
     5    2    7 ar
     6    2    3 ar
     7    3    4 ar
     8    3   30 1
     9    4    5 ar
    10    4   31 1
    11    5    6 ar
    12    5    9 1
    13    6    7 ar
    14    6    8 1
    15    7   32 1
    16    9   10 1
    17   10   11 2
    18   10   12 2
    19   10   13 1
    20   13   17 1
    21   13   14 2
    22   14   15 1
    23   14   33 1
    24   15   16 2
    25   15   18 1
    26   16   17 1
    27   16   34 1
    28   18   22 1
    29   18   19 2
    30   19   20 1
    31   20   21 2
    32   20   23 1
    33   21   22 1
    34   21   35 1
    35   23   24 1
    36   23   25 1
    37   23   26 1
    38   24   36 1
    39   24   37 1
    40   24   38 1
    41   25   39 1
    42   25   40 1
    43   25   41 1
    44   26   42 1
    45   26   43 1
    46   26   44 1
@<TRIPOS>MOLECULE
ZINC39345320
   46    49     0     0     0
SMALL
USER_CHARGES

@<TRIPOS>ATOM
      1 C1          0.2932    1.4976    0.0357 C.3       1 <0>        -0.1472
      2 C2          0.0021   -0.0041    0.0020 C.3       1 <0>        -0.0623
      3 C3          0.5564   -0.6596    1.2685 C.3       1 <0>        -0.1472
      4 C4         -1.5096   -0.2291   -0.0689 C.3       1 <0>        -0.1459
      5 C5          0.6684   -0.6253   -1.2272 C.3       1 <0>        -0.0787
      6 H1          0.2096   -0.2100   -2.1246 H         1 <0>         0.0748
      7 C6          0.4365   -2.1308   -1.2061 C.3       1 <0>        -0.1208
      8 C7          0.8419   -2.7397   -2.5546 C.3       1 <0>        -0.0820
      9 C8          2.0567   -1.9484   -3.0351 C.2       1 <0>         0.0362
     10 C9          2.3866   -1.7789   -4.3153 C.2       1 <0>        -0.2964
     11 C10         3.5616   -0.9258   -4.6355 C.2       1 <0>         0.2499
     12 N1          3.9473   -0.6934   -5.8651 N.2       1 <0>        -0.4883
     13 C11         3.2407   -1.2579   -6.8568 C.2       1 <0>         0.4954
     14 N2          2.1845   -2.0293   -6.6913 N.2       1 <0>        -0.6422
     15 C12         1.6649   -2.3590   -5.4987 C.2       1 <0>         0.5634
     16 O1          0.6835   -3.0742   -5.3842 O.2       1 <0>        -0.4756
     17 C13         3.6811   -0.9937   -8.2433 C.ar      1 <0>        -0.2017
     18 C14         4.7969   -0.1882   -8.4818 C.ar      1 <0>         0.0078
     19 C15         5.2047    0.0562   -9.7757 C.ar      1 <0>        -0.1715
     20 C16         4.5064   -0.4977  -10.8428 C.ar      1 <0>         0.3168
     21 C17         3.3949   -1.2997  -10.6090 C.ar      1 <0>        -0.1736
     22 C18         2.9856   -1.5536   -9.3173 C.ar      1 <0>         0.0168
     23 Cl1         2.5262   -1.9884  -11.9449 Cl        1 <0>        -0.0882
     24 O2          4.9105   -0.2546  -12.1161 O.3       1 <0>        -0.6354
     25 Cl2         6.5915    1.0573  -10.0732 Cl        1 <0>        -0.0889
     26 S1          4.1800   -0.4063   -3.0666 S.3       1 <0>        -0.0244
     27 C19         2.9681   -1.2870   -2.0029 C.3       1 <0>        -0.0561
     28 H2          3.4491   -2.0177   -1.3527 H         1 <0>         0.1507
     29 C20         2.1482   -0.2677   -1.2194 C.3       1 <0>        -0.1014
     30 H3          1.3701    1.6579    0.0863 H         1 <0>         0.0587
     31 H4         -0.1017    1.9646   -0.8665 H         1 <0>         0.0560
     32 H5         -0.1815    1.9401    0.9115 H         1 <0>         0.0551
     33 H6          0.0853   -0.2136    2.1444 H         1 <0>         0.0544
     34 H7          0.3447   -1.7286    1.2468 H         1 <0>         0.0595
     35 H8          1.6341   -0.5035    1.3165 H         1 <0>         0.0579
     36 H9         -1.9045    0.2379   -0.9712 H         1 <0>         0.0559
     37 H10        -1.7170   -1.2989   -0.0929 H         1 <0>         0.0598
     38 H11        -1.9843    0.2135    0.8068 H         1 <0>         0.0552
     39 H12         1.0347   -2.5782   -0.4123 H         1 <0>         0.0720
     40 H13        -0.6185   -2.3322   -1.0204 H         1 <0>         0.0825
     41 H14         1.1058   -3.7895   -2.4270 H         1 <0>         0.1013
     42 H15         0.0252   -2.6422   -3.2698 H         1 <0>         0.1066
     43 H16         5.3394    0.2430   -7.6534 H         1 <0>         0.1292
     44 H17         2.1252   -2.1808   -9.1362 H         1 <0>         0.1332
     45 H18         2.2803    0.7162   -1.6696 H         1 <0>         0.0884
     46 H19         2.5032   -0.2385   -0.1893 H         1 <0>         0.0904
@<TRIPOS>BOND
     1    1    2 1
     2    1   30 1
     3    1   31 1
     4    1   32 1
     5    2    3 1
     6    2    4 1
     7    2    5 1
     8    3   33 1
     9    3   34 1
    10    3   35 1
    11    4   36 1
    12    4   37 1
    13    4   38 1
    14    5    6 1
    15    5   29 1
    16    5    7 1
    17    7    8 1
    18    7   39 1
    19    7   40 1
    20    8    9 1
    21    8   41 1
    22    8   42 1
    23    9   27 1
    24    9   10 2
    25   10   15 1
    26   10   11 1
    27   11   12 2
    28   11   26 1
    29   12   13 1
    30   13   14 2
    31   13   17 1
    32   14   15 1
    33   15   16 2
    34   17   22 ar
    35   17   18 ar
    36   18   19 ar
    37   18   43 1
    38   19   20 ar
    39   19   25 1
    40   20   21 ar
    41   20   24 1
    42   21   22 ar
    43   21   23 1
    44   22   44 1
    45   26   27 1
    46   27   28 1
    47   27   29 1
    48   29   45 1
    49   29   46 1
@<TRIPOS>MOLECULE
ZINC48994544
   38    40     0     0     0
SMALL
USER_CHARGES

@<TRIPOS>ATOM
      1 C1         -0.0167    1.3831    0.0096 C.2       1 <0>        -0.1274
      2 C2          1.1698    2.0565    0.0019 C.2       1 <0>        -0.1275
      3 C3          2.3529    1.3228   -0.0133 C.2       1 <0>        -0.1307
      4 S1          1.7517   -0.3582   -0.0166 S.3       1 <0>         0.1474
      5 C4          0.0021   -0.0041    0.0020 C.2       1 <0>        -0.1827
      6 C5         -1.1350   -0.9470    0.0087 C.ar      1 <0>         0.0484
      7 C6         -2.4453   -0.4650    0.0191 C.ar      1 <0>        -0.0973
      8 C7         -3.5038   -1.3515    0.0253 C.ar      1 <0>        -0.0161
      9 C8         -3.2680   -2.7159    0.0214 C.ar      1 <0>        -0.1124
     10 C9         -1.9708   -3.2002    0.0116 C.ar      1 <0>        -0.0139
     11 C10        -0.9039   -2.3240   -0.0011 C.ar      1 <0>        -0.1023
     12 Cl1        -1.6855   -4.9125    0.0072 Cl        1 <0>        -0.0556
     13 Cl2        -5.1338   -0.7542    0.0388 Cl        1 <0>        -0.0583
     14 C11         3.6875    1.7890   -0.0239 C.2       1 <0>         0.4042
     15 O1          3.9393    3.1163   -0.0197 O.3       1 <0>        -0.5839
     16 C12         4.7463    0.8769   -0.0389 C.2       1 <0>        -0.4103
     17 C13         4.4793   -0.5299   -0.0434 C.1       1 <0>         0.2939
     18 N1          4.2675   -1.6460   -0.0470 N.1       1 <0>        -0.5110
     19 C14         6.1279    1.3597   -0.0499 C.2       1 <0>         0.6113
     20 O2          6.3549    2.5558   -0.0460 O.2       1 <0>        -0.5414
     21 N2          7.1490    0.4801   -0.0643 N.am      1 <0>        -0.6379
     22 C15         7.0183   -0.9843   -0.0768 C.3       1 <0>         0.1068
     23 C16         8.4453   -1.5717   -0.0648 C.3       1 <0>        -0.1317
     24 C17         9.2929   -0.4136    0.5250 C.3       1 <0>        -0.1329
     25 C18         8.5818    0.8270   -0.0765 C.3       1 <0>         0.1118
     26 H1         -0.9536    1.9201    0.0259 H         1 <0>         0.1312
     27 H2          1.1908    3.1363    0.0072 H         1 <0>         0.1451
     28 H3         -2.6305    0.5990    0.0225 H         1 <0>         0.1438
     29 H4         -4.0993   -3.4053    0.0263 H         1 <0>         0.1441
     30 H5          0.1074   -2.7028   -0.0139 H         1 <0>         0.1429
     31 H6          6.4736   -1.3154    0.8073 H         1 <0>         0.0621
     32 H7          6.4943   -1.3020   -0.9782 H         1 <0>         0.0602
     33 H8          8.4949   -2.4514    0.5769 H         1 <0>         0.0741
     34 H9          8.7720   -1.8122   -1.0765 H         1 <0>         0.0704
     35 H10         9.2422   -0.4075    1.6138 H         1 <0>         0.0720
     36 H11        10.3265   -0.4729    0.1839 H         1 <0>         0.0758
     37 H12         8.9207    1.0036   -1.0973 H         1 <0>         0.0556
     38 H13         8.7646    1.7056    0.5422 H         1 <0>         0.0719
@<TRIPOS>BOND
     1    1    5 2
     2    1    2 1
     3    1   26 1
     4    2    3 2
     5    2   27 1
     6    3    4 1
     7    3   14 1
     8    4    5 1
     9    5    6 1
    10    6   11 ar
    11    6    7 ar
    12    7    8 ar
    13    7   28 1
    14    8    9 ar
    15    8   13 1
    16    9   10 ar
    17    9   29 1
    18   10   11 ar
    19   10   12 1
    20   11   30 1
    21   14   15 1
    22   14   16 2
    23   16   17 1
    24   16   19 1
    25   17   18 3
    26   19   20 2
    27   19   21 am
    28   21   25 1
    29   21   22 1
    30   22   23 1
    31   22   31 1
    32   22   32 1
    33   23   24 1
    34   23   33 1
    35   23   34 1
    36   24   25 1
    37   24   35 1
    38   24   36 1
    39   25   37 1
    40   25   38 1
@<TRIPOS>MOLECULE
ZINC20227100
   38    41     0     0     0
SMALL
USER_CHARGES

@<TRIPOS>ATOM
      1 C1         -1.7131    1.4484   -0.2033 C.3       1 <0>         0.0748
      2 N1         -1.6157   -0.0133   -0.1906 N.pl3     1 <0>        -0.4774
      3 C2         -1.3179   -0.7783   -1.2704 C.2       1 <0>         0.0924
      4 C3         -1.3081   -2.0980   -0.9114 C.2       1 <0>        -0.1613
      5 C4         -1.6315   -2.1411    0.5276 C.ar      1 <0>        -0.0825
      6 C5         -1.8082   -0.8053    0.9230 C.ar      1 <0>         0.0899
      7 C6         -2.1220   -0.5224    2.2481 C.ar      1 <0>        -0.1272
      8 C7         -2.2531   -1.5491    3.1582 C.ar      1 <0>        -0.1047
      9 C8         -2.0746   -2.8676    2.7665 C.ar      1 <0>        -0.1457
     10 C9         -1.7715   -3.1686    1.4561 C.ar      1 <0>        -0.0705
     11 C10        -1.0318   -3.2402   -1.7814 C.2       1 <0>         0.0406
     12 C11        -0.7465   -3.0401   -3.0978 C.2       1 <0>        -0.2136
     13 C12        -0.4439   -4.0209   -4.1598 C.2       1 <0>         0.5356
     14 O1         -0.4184   -5.2220   -3.9381 O.2       1 <0>        -0.5364
     15 N2         -0.2039   -3.5322   -5.3572 N.2       1 <0>        -0.7117
     16 C13        -0.2288   -2.2336   -5.6111 C.2       1 <0>         0.4518
     17 S1         -0.6407   -1.5164   -4.0281 S.3       1 <0>        -0.1368
     18 N3          0.0009   -1.5937   -6.8031 N.2       1 <0>        -0.5646
     19 C14         0.1069   -2.3340   -7.9855 C.ar      1 <0>         0.1842
     20 C15        -0.4794   -3.5897   -8.0751 C.ar      1 <0>        -0.1402
     21 C16        -0.3732   -4.3185   -9.2434 C.ar      1 <0>        -0.0872
     22 C17         0.3170   -3.7992  -10.3247 C.ar      1 <0>        -0.0763
     23 C18         0.9028   -2.5486  -10.2390 C.ar      1 <0>        -0.0884
     24 C19         0.7942   -1.8118   -9.0747 C.ar      1 <0>        -0.0512
     25 Cl1         1.5222   -0.2392   -8.9702 Cl        1 <0>        -0.0701
     26 Cl2         0.4485   -4.7188  -11.7912 Cl        1 <0>        -0.0911
     27 H1         -0.7361    1.8795    0.0154 H         1 <0>         0.0720
     28 H2         -2.0455    1.7819   -1.1863 H         1 <0>         0.0873
     29 H3         -2.4300    1.7714    0.5516 H         1 <0>         0.0814
     30 H4         -1.1192   -0.4024   -2.2632 H         1 <0>         0.1833
     31 H5         -2.2624    0.5009    2.5637 H         1 <0>         0.1170
     32 H6         -2.4969   -1.3248    4.1861 H         1 <0>         0.1230
     33 H7         -2.1800   -3.6623    3.4902 H         1 <0>         0.1223
     34 H8         -1.6319   -4.1960    1.1537 H         1 <0>         0.1251
     35 H9         -1.0540   -4.2426   -1.3799 H         1 <0>         0.1452
     36 H10        -1.0176   -3.9962   -7.2316 H         1 <0>         0.1544
     37 H11        -0.8291   -5.2951   -9.3131 H         1 <0>         0.1252
     38 H12         1.4411   -2.1458  -11.0843 H         1 <0>         0.1317
@<TRIPOS>BOND
     1    1    2 1
     2    1   27 1
     3    1   28 1
     4    1   29 1
     5    2    6 1
     6    2    3 1
     7    3    4 2
     8    3   30 1
     9    4    5 1
    10    4   11 1
    11    5   10 ar
    12    5    6 ar
    13    6    7 ar
    14    7    8 ar
    15    7   31 1
    16    8    9 ar
    17    8   32 1
    18    9   10 ar
    19    9   33 1
    20   10   34 1
    21   11   12 2
    22   11   35 1
    23   12   17 1
    24   12   13 1
    25   13   14 2
    26   13   15 1
    27   15   16 2
    28   16   17 1
    29   16   18 1
    30   18   19 1
    31   19   24 ar
    32   19   20 ar
    33   20   21 ar
    34   20   36 1
    35   21   22 ar
    36   21   37 1
    37   22   23 ar
    38   22   26 1
    39   23   24 ar
    40   23   38 1
    41   24   25 1
@<TRIPOS>MOLECULE
ZINC18125799
   49    54     0     0     0
SMALL
USER_CHARGES

@<TRIPOS>ATOM
      1 C1         -0.0169    1.3932    0.0097 C.ar      1 <0>        -0.0987
      2 C2          1.1398    2.1366    0.0027 C.ar      1 <0>        -0.1097
      3 C3          2.4026    1.5351   -0.0122 C.ar      1 <0>        -0.0417
      4 C4          2.4368    0.1540   -0.0196 C.ar      1 <0>        -0.1556
      5 C5          1.2459   -0.6156   -0.0130 C.ar      1 <0>        -0.0622
      6 C6          0.0021   -0.0041    0.0020 C.ar      1 <0>        -0.0805
      7 C7          1.6428   -2.0271   -0.0251 C.2       1 <0>         0.2329
      8 C8          3.0121   -2.1065   -0.0390 C.2       1 <0>        -0.2735
      9 C9          3.5630   -0.8052   -0.0347 C.2       1 <0>         0.4464
     10 O1          4.7462   -0.5250   -0.0421 O.2       1 <0>        -0.4198
     11 C10         3.7402   -3.4235   -0.0584 C.3       1 <0>         0.0965
     12 H1          4.5497   -3.4014    0.6712 H         1 <0>         0.0964
     13 C11         2.7801   -4.5401    0.2883 C.2       1 <0>        -0.2617
     14 C12         1.4427   -4.3660    0.2811 C.2       1 <0>         0.2161
     15 N1          0.8619   -3.1588   -0.0223 N.pl3     1 <0>        -0.6143
     16 C13         0.5127   -5.5125    0.6068 C.3       1 <0>        -0.0957
     17 C14         1.1817   -6.4468    1.6164 C.3       1 <0>         0.0106
     18 H2          1.3963   -5.9014    2.5355 H         1 <0>         0.1133
     19 C15         2.4889   -6.9612    1.0040 C.3       1 <0>        -0.1641
     20 C16         3.3457   -5.7857    0.6256 C.2       1 <0>         0.4031
     21 O2          4.5540   -5.9125    0.6103 O.2       1 <0>        -0.4527
     22 C17         0.2689   -7.6078    1.9163 C.2       1 <0>        -0.0166
     23 C18        -0.2285   -7.9256    3.1250 C.2       1 <0>        -0.1953
     24 C19        -1.0296   -9.0771    2.9485 C.2       1 <0>        -0.2140
     25 C20        -0.9738   -9.3941    1.6424 C.2       1 <0>        -0.0335
     26 O3         -0.1905   -8.4973    1.0211 O.3       1 <0>        -0.1728
     27 C21         4.3102   -3.6614   -1.4330 C.ar      1 <0>        -0.0628
     28 C22         3.4693   -3.7226   -2.5285 C.ar      1 <0>        -0.0969
     29 C23         3.9914   -3.9409   -3.7895 C.ar      1 <0>        -0.1142
     30 C24         5.3559   -4.0981   -3.9552 C.ar      1 <0>        -0.0354
     31 C25         6.1970   -4.0367   -2.8584 C.ar      1 <0>        -0.1092
     32 C26         5.6742   -3.8128   -1.5987 C.ar      1 <0>        -0.0788
     33 Cl1         6.0124   -4.3728   -5.5387 Cl        1 <0>        -0.0739
     34 H3         -0.9682    1.9042    0.0261 H         1 <0>         0.1342
     35 H4          1.0714    3.2145    0.0084 H         1 <0>         0.1353
     36 H5          3.3086    2.1230   -0.0179 H         1 <0>         0.1466
     37 H6         -0.9108   -0.5812    0.0079 H         1 <0>         0.1391
     38 H7         -0.0838   -3.1056   -0.2315 H         1 <0>         0.4230
     39 H8         -0.4112   -5.1206    1.0320 H         1 <0>         0.0979
     40 H9          0.2859   -6.0658   -0.3046 H         1 <0>         0.1081
     41 H10         3.0157   -7.5773    1.7328 H         1 <0>         0.1051
     42 H11         2.2677   -7.5527    0.1156 H         1 <0>         0.1082
     43 H12        -0.0497   -7.4019    4.0525 H         1 <0>         0.1495
     44 H13        -1.5803   -9.6017    3.7151 H         1 <0>         0.1501
     45 H14        -1.4768  -10.2262    1.1724 H         1 <0>         0.2048
     46 H15         2.4041   -3.6002   -2.3990 H         1 <0>         0.1191
     47 H16         3.3343   -3.9890   -4.6453 H         1 <0>         0.1300
     48 H17         7.2622   -4.1597   -2.9871 H         1 <0>         0.1335
     49 H18         6.3312   -3.7602   -0.7431 H         1 <0>         0.1335
@<TRIPOS>BOND
     1    1    6 ar
     2    1    2 ar
     3    1   34 1
     4    2    3 ar
     5    2   35 1
     6    3    4 ar
     7    3   36 1
     8    4    9 1
     9    4    5 ar
    10    5    6 ar
    11    5    7 1
    12    6   37 1
    13    7   15 1
    14    7    8 2
    15    8    9 1
    16    8   11 1
    17    9   10 2
    18   11   12 1
    19   11   13 1
    20   11   27 1
    21   13   20 1
    22   13   14 2
    23   14   15 1
    24   14   16 1
    25   15   38 1
    26   16   17 1
    27   16   39 1
    28   16   40 1
    29   17   18 1
    30   17   19 1
    31   17   22 1
    32   19   20 1
    33   19   41 1
    34   19   42 1
    35   20   21 2
    36   22   26 1
    37   22   23 2
    38   23   24 1
    39   23   43 1
    40   24   25 2
    41   24   44 1
    42   25   26 1
    43   25   45 1
    44   27   32 ar
    45   27   28 ar
    46   28   29 ar
    47   28   46 1
    48   29   30 ar
    49   29   47 1
    50   30   31 ar
    51   30   33 1
    52   31   32 ar
    53   31   48 1
    54   32   49 1
@<TRIPOS>MOLECULE
ZINC13254192
   50    54     0     0     0
SMALL
USER_CHARGES
2-[[(7S)-7-methyl-4-oxo-3-phenyl-5,6,7,8-tetrahydrobenzothiopheno[2,3-d]pyrimidin-2-yl]sulfanylmethyl]furan-3-carboxylic acid
@<TRIPOS>ATOM
      1 C1          0.0001    3.9762   -1.5337 C.3       1 <0>        -0.1457
      2 C2          0.2192    2.4713   -1.3660 C.3       1 <0>        -0.0868
      3 H1          0.5469    2.2579   -0.3485 H         1 <0>         0.0759
      4 C3         -1.0882    1.7265   -1.6517 C.3       1 <0>        -0.1159
      5 C4         -0.9480    0.2584   -1.2492 C.3       1 <0>        -0.0582
      6 C5          0.2959   -0.3216   -1.9172 C.2       1 <0>        -0.0373
      7 C6          1.2618    0.4946   -2.3968 C.2       1 <0>        -0.1892
      8 S1          2.4935   -0.5894   -3.0745 S.3       1 <0>         0.1426
      9 C7          1.7142   -2.1313   -2.7138 C.2       1 <0>         0.1240
     10 C8          0.5123   -1.7507   -2.0738 C.2       1 <0>        -0.2755
     11 C9         -0.3638   -2.8012   -1.6477 C.2       1 <0>         0.5724
     12 O1         -1.4223   -2.5735   -1.0875 O.2       1 <0>        -0.5077
     13 N1          0.0564   -4.0623   -1.9044 N.am      1 <0>        -0.4720
     14 C10         1.2364   -4.3385   -2.5298 C.2       1 <0>         0.3747
     15 N2          2.0694   -3.3904   -2.9372 N.2       1 <0>        -0.4787
     16 S2          1.6722   -6.0231   -2.8072 S.3       1 <0>         0.0657
     17 C11         3.2671   -5.8031   -3.6342 C.3       1 <0>        -0.0181
     18 C12         3.8458   -7.1518   -3.9764 C.2       1 <0>        -0.0091
     19 C13         3.6400   -7.8376   -5.1384 C.2       1 <0>        -0.1588
     20 C14         4.4052   -9.0860   -5.0016 C.2       1 <0>        -0.1766
     21 C15         4.9863   -9.0317   -3.7937 C.2       1 <0>        -0.0510
     22 O2          4.6525   -7.8772   -3.1961 O.3       1 <0>        -0.1848
     23 C16         2.8228   -7.4158   -6.2882 C.2       1 <0>         0.5123
     24 O3          2.2414   -6.3489   -6.2618 O.co2     1 <0>        -0.6218
     25 C17        -0.7582   -5.1321   -1.5103 C.ar      1 <0>         0.0873
     26 C18        -0.6042   -5.6966   -0.2512 C.ar      1 <0>        -0.0876
     27 C19        -1.4125   -6.7472    0.1366 C.ar      1 <0>        -0.1125
     28 C20        -2.3664   -7.2448   -0.7322 C.ar      1 <0>        -0.0988
     29 C21        -2.5183   -6.6884   -1.9890 C.ar      1 <0>        -0.1082
     30 C22        -1.7171   -5.6335   -2.3802 C.ar      1 <0>        -0.0818
     31 C23         1.2845    1.9916   -2.3621 C.3       1 <0>        -0.0270
     32 H2         -0.7675    4.3115   -0.8362 H         1 <0>         0.0572
     33 H3          0.9318    4.5039   -1.3299 H         1 <0>         0.0562
     34 H4         -0.3201    4.1852   -2.5544 H         1 <0>         0.0567
     35 H5         -1.3163    1.7902   -2.7156 H         1 <0>         0.0657
     36 H6         -1.8971    2.1829   -1.0811 H         1 <0>         0.0688
     37 H7         -0.8487    0.1848   -0.1662 H         1 <0>         0.0763
     38 H8         -1.8297   -0.2946   -1.5732 H         1 <0>         0.0854
     39 H9          3.1260   -5.2258   -4.5480 H         1 <0>         0.1504
     40 H10         3.9501   -5.2723   -2.9710 H         1 <0>         0.1085
     41 H11         4.4837   -9.8833   -5.7259 H         1 <0>         0.1542
     42 H12         5.6248   -9.7935   -3.3714 H         1 <0>         0.2022
     43 H13         0.1438   -5.3115    0.4260 H         1 <0>         0.1265
     44 H14        -1.2965   -7.1836    1.1176 H         1 <0>         0.1324
     45 H15        -2.9942   -8.0693   -0.4284 H         1 <0>         0.1304
     46 H16        -3.2643   -7.0789   -2.6652 H         1 <0>         0.1346
     47 H17        -1.8367   -5.1989   -3.3617 H         1 <0>         0.1301
     48 H18         2.2675    2.3357   -2.0405 H         1 <0>         0.0797
     49 H19         1.0659    2.3844   -3.3551 H         1 <0>         0.0826
     50 O4          2.7195   -8.2129   -7.3701 O.co2     1 <0>        -0.7499
@<TRIPOS>BOND
     1    1    2 1
     2    1   32 1
     3    1   33 1
     4    1   34 1
     5    2    3 1
     6    2   31 1
     7    2    4 1
     8    4    5 1
     9    4   35 1
    10    4   36 1
    11    5    6 1
    12    5   37 1
    13    5   38 1
    14    6   10 1
    15    6    7 2
    16    7    8 1
    17    7   31 1
    18    8    9 1
    19    9   15 1
    20    9   10 2
    21   10   11 1
    22   11   12 2
    23   11   13 am
    24   13   14 1
    25   13   25 1
    26   14   15 2
    27   14   16 1
    28   16   17 1
    29   17   18 1
    30   17   39 1
    31   17   40 1
    32   18   22 1
    33   18   19 2
    34   19   20 1
    35   19   23 1
    36   20   21 2
    37   20   41 1
    38   21   22 1
    39   21   42 1
    40   23   24 2
    41   23   50 1
    42   25   30 ar
    43   25   26 ar
    44   26   27 ar
    45   26   43 1
    46   27   28 ar
    47   27   44 1
    48   28   29 ar
    49   28   45 1
    50   29   30 ar
    51   29   46 1
    52   30   47 1
    53   31   48 1
    54   31   49 1
@<TRIPOS>MOLECULE
ZINC09065323
   46    50     0     0     0
SMALL
USER_CHARGES
(5S)-5-(2-fluorophenyl)-3-hydroxy-1-(6-methoxy-1,3-benzothiazol-2-yl)-4-(thiophene-2-carbonyl)-5H-pyrrol-2-one
@<TRIPOS>ATOM
      1 C1          3.8761    3.6541   -0.4071 C.3       1 <0>         0.0238
      2 O1          2.5370    3.2150   -0.1709 O.3       1 <0>        -0.3123
      3 C2          2.3117    1.8745   -0.2052 C.ar      1 <0>         0.1280
      4 C3          3.3565    0.9911   -0.4602 C.ar      1 <0>        -0.1854
      5 C4          3.1587   -0.3538   -0.5005 C.ar      1 <0>        -0.0330
      6 C5          1.8755   -0.9065   -0.2822 C.ar      1 <0>         0.0844
      7 C6          0.8338    0.0139   -0.0248 C.ar      1 <0>        -0.1412
      8 C7          1.0379    1.3708    0.0145 C.ar      1 <0>        -0.0904
      9 S1         -0.5706   -1.0533    0.1876 S.3       1 <0>         0.0622
     10 C8          0.2832   -2.6021   -0.0698 C.2       1 <0>         0.4017
     11 N1          1.5163   -2.2093   -0.2880 N.2       1 <0>        -0.5389
     12 N2         -0.2265   -3.8888   -0.0456 N.am      1 <0>        -0.5058
     13 C9          0.5337   -5.1237   -0.2723 C.3       1 <0>         0.2723
     14 H1          1.3537   -5.2014    0.4567 H         1 <0>         0.0922
     15 C10        -0.4566   -6.2571   -0.1390 C.2       1 <0>        -0.4851
     16 C11        -1.6584   -5.6957    0.1279 C.2       1 <0>         0.2765
     17 C12        -1.5078   -4.2289    0.1842 C.2       1 <0>         0.5162
     18 O2         -2.4085   -3.4436    0.4051 O.2       1 <0>        -0.4820
     19 O3         -2.8161   -6.3727    0.3135 O.3       1 <0>        -0.6295
     20 C13        -0.1713   -7.6898   -0.2790 C.2       1 <0>         0.5462
     21 O4         -0.6532   -8.3194   -1.2043 O.2       1 <0>        -0.4552
     22 C14         0.6929   -8.3633    0.6940 C.2       1 <0>        -0.2080
     23 C15         1.1635   -9.6701    0.6901 C.2       1 <0>        -0.1096
     24 C16         1.9667  -10.0470    1.7357 C.2       1 <0>        -0.1715
     25 C17         2.2593   -9.1420    2.7084 C.2       1 <0>        -0.2204
     26 S2          1.4214   -7.7161    2.1885 S.3       1 <0>         0.1647
     27 C18         1.1345   -5.1162   -1.6544 C.ar      1 <0>        -0.0987
     28 C19         0.5437   -4.3759   -2.6611 C.ar      1 <0>        -0.0720
     29 C20         1.0979   -4.3643   -3.9273 C.ar      1 <0>        -0.1267
     30 C21         2.2371   -5.1020   -4.1914 C.ar      1 <0>        -0.0988
     31 C22         2.8262   -5.8473   -3.1880 C.ar      1 <0>        -0.1533
     32 C23         2.2752   -5.8552   -1.9176 C.ar      1 <0>         0.1104
     33 F1          2.8506   -6.5832   -0.9356 F         1 <0>        -0.1343
     34 H2          3.9173    4.7519   -0.3510 H         1 <0>         0.1013
     35 H3          4.1988    3.3256   -1.4061 H         1 <0>         0.0572
     36 H4          4.5430    3.2228    0.3539 H         1 <0>         0.0572
     37 H5          4.3482    1.3831   -0.6310 H         1 <0>         0.1345
     38 H6          3.9934   -1.0089   -0.7015 H         1 <0>         0.1337
     39 H7          0.2135    2.0404    0.2102 H         1 <0>         0.1383
     40 H8          0.9084  -10.3588   -0.1017 H         1 <0>         0.1398
     41 H9          2.3626  -11.0505    1.7862 H         1 <0>         0.1293
     42 H10         2.8696   -9.2777    3.5890 H         1 <0>         0.1817
     43 H11        -0.3487   -3.8028   -2.4571 H         1 <0>         0.1179
     44 H12         0.6379   -3.7823   -4.7123 H         1 <0>         0.1240
     45 H13         2.6665   -5.0960   -5.1823 H         1 <0>         0.1273
     46 H14         3.7158   -6.4237   -3.3946 H         1 <0>         0.1316
@<TRIPOS>BOND
     1    1    2 1
     2    1   34 1
     3    1   35 1
     4    1   36 1
     5    2    3 1
     6    3    8 ar
     7    3    4 ar
     8    4    5 ar
     9    4   37 1
    10    5    6 ar
    11    5   38 1
    12    6   11 1
    13    6    7 ar
    14    7    8 ar
    15    7    9 1
    16    8   39 1
    17    9   10 1
    18   10   11 2
    19   10   12 1
    20   12   17 am
    21   12   13 1
    22   13   14 1
    23   13   15 1
    24   13   27 1
    25   15   16 2
    26   15   20 1
    27   16   17 1
    28   16   19 1
    29   17   18 2
    30   20   21 2
    31   20   22 1
    32   22   26 1
    33   22   23 2
    34   23   24 1
    35   23   40 1
    36   24   25 2
    37   24   41 1
    38   25   26 1
    39   25   42 1
    40   27   32 ar
    41   27   28 ar
    42   28   29 ar
    43   28   43 1
    44   29   30 ar
    45   29   44 1
    46   30   31 ar
    47   30   45 1
    48   31   32 ar
    49   31   46 1
    50   32   33 1
@<TRIPOS>MOLECULE
ZINC33516039
   43    46     0     0     0
SMALL
USER_CHARGES
(2R)-1-benzyl-4-hydroxy-2-(4-iodophenyl)-3-(thiophene-2-carbonyl)-2H-pyrrol-5-one
@<TRIPOS>ATOM
      1 C1          1.2032    5.5711   -3.1362 C.ar      1 <0>        -0.1186
      2 C2          2.5842    5.5102   -3.1230 C.ar      1 <0>        -0.1260
      3 C3          3.2207    4.3062   -2.8864 C.ar      1 <0>        -0.0961
      4 C4          2.4762    3.1631   -2.6627 C.ar      1 <0>        -0.1044
      5 C5          1.0953    3.2230   -2.6811 C.ar      1 <0>        -0.0902
      6 C6          0.4588    4.4278   -2.9138 C.ar      1 <0>        -0.1198
      7 C7          3.1701    1.8505   -2.4047 C.3       1 <0>         0.1719
      8 N1          3.3941    1.6910   -0.9658 N.am      1 <0>        -0.6062
      9 C8          2.4730    1.0607   -0.0126 C.3       1 <0>         0.2638
     10 H1          2.2679    0.0236   -0.3165 H         1 <0>         0.0715
     11 C9          3.1473    1.1378    1.3373 C.2       1 <0>        -0.5031
     12 C10         4.3349    1.7557    1.1458 C.2       1 <0>         0.2693
     13 C11         4.4810    2.0956   -0.2838 C.2       1 <0>         0.5149
     14 O1          5.4412    2.6578   -0.7721 O.2       1 <0>        -0.5301
     15 O2          5.2459    2.0204    2.1117 O.3       1 <0>        -0.6485
     16 C12         2.6156    0.6386    2.6113 C.2       1 <0>         0.5415
     17 O3          2.3369    1.4205    3.5033 O.2       1 <0>        -0.4615
     18 C13         2.4199   -0.7998    2.8102 C.2       1 <0>        -0.2055
     19 C14         1.8448   -1.4647    3.8855 C.2       1 <0>        -0.1158
     20 C15         1.7871   -2.8329    3.8143 C.2       1 <0>        -0.1708
     21 C16         2.2856   -3.4627    2.7162 C.2       1 <0>        -0.2247
     22 S1          2.8513   -2.1533    1.7308 S.3       1 <0>         0.1617
     23 C17         1.1657    1.8098    0.0175 C.ar      1 <0>        -0.0554
     24 C18        -0.0282    1.1205   -0.0841 C.ar      1 <0>        -0.1163
     25 C19        -1.2273    1.8078   -0.0618 C.ar      1 <0>        -0.0909
     26 C20        -1.2328    3.1842    0.0722 C.ar      1 <0>        -0.0996
     27 C21        -0.0382    3.8735    0.1743 C.ar      1 <0>        -0.0799
     28 C22         1.1607    3.1861    0.1472 C.ar      1 <0>        -0.0657
     29 I1         -3.0501    4.2256    0.1134 I         1 <0>        -0.0648
     30 H2          0.7059    6.5119   -3.3207 H         1 <0>         0.1152
     31 H3          3.1658    6.4034   -3.2971 H         1 <0>         0.1169
     32 H4          4.2996    4.2586   -2.8761 H         1 <0>         0.1231
     33 H5          0.5137    2.3291   -2.5106 H         1 <0>         0.1167
     34 H6         -0.6201    4.4753   -2.9245 H         1 <0>         0.1147
     35 H7          2.5420    1.0254   -2.7717 H         1 <0>         0.0842
     36 H8          4.1365    1.8372   -2.9299 H         1 <0>         0.0891
     37 H9          1.4603   -0.9279    4.7401 H         1 <0>         0.1392
     38 H10         1.3512   -3.4040    4.6207 H         1 <0>         0.1285
     39 H11         2.3170   -4.5217    2.5069 H         1 <0>         0.1811
     40 H12        -0.0240    0.0453   -0.1854 H         1 <0>         0.1264
     41 H13        -2.1599    1.2696   -0.1454 H         1 <0>         0.1225
     42 H14        -0.0421    4.9488    0.2749 H         1 <0>         0.1203
     43 H15         2.0936    3.7244    0.2269 H         1 <0>         0.1214
@<TRIPOS>BOND
     1    1    6 ar
     2    1    2 ar
     3    1   30 1
     4    2    3 ar
     5    2   31 1
     6    3    4 ar
     7    3   32 1
     8    4    5 ar
     9    4    7 1
    10    5    6 ar
    11    5   33 1
    12    6   34 1
    13    7    8 1
    14    7   35 1
    15    7   36 1
    16    8   13 am
    17    8    9 1
    18    9   10 1
    19    9   11 1
    20    9   23 1
    21   11   12 2
    22   11   16 1
    23   12   13 1
    24   12   15 1
    25   13   14 2
    26   16   17 2
    27   16   18 1
    28   18   22 1
    29   18   19 2
    30   19   20 1
    31   19   37 1
    32   20   21 2
    33   20   38 1
    34   21   22 1
    35   21   39 1
    36   23   28 ar
    37   23   24 ar
    38   24   25 ar
    39   24   40 1
    40   25   26 ar
    41   25   41 1
    42   26   27 ar
    43   26   29 1
    44   27   28 ar
    45   27   42 1
    46   28   43 1
@<TRIPOS>MOLECULE
ZINC39999674
   45    48     0     0     0
SMALL
USER_CHARGES

@<TRIPOS>ATOM
      1 C1          0.4462    1.5605    0.1512 C.3       1 <0>        -0.1378
      2 C2          0.3685    0.0326    0.1322 C.3       1 <0>        -0.1141
      3 S1          1.3398   -0.6395    1.5089 S.3       1 <0>         0.0291
      4 C3          1.1523   -2.3843    1.3511 C.2       1 <0>        -0.0253
      5 N1          0.4791   -3.0914    0.4543 N.2       1 <0>        -0.2498
      6 N2          0.4481   -4.3519    0.4860 N.2       1 <0>        -0.3105
      7 C4          1.0854   -5.0459    1.4158 C.2       1 <0>         0.3213
      8 S2          1.8230   -3.7093    2.3514 S.3       1 <0>         0.0852
      9 N3          1.1638   -6.4200    1.6080 N.am      1 <0>        -0.4989
     10 C5          0.5282   -7.4463    0.7732 C.3       1 <0>         0.2658
     11 H1          0.9022   -7.3828   -0.2486 H         1 <0>         0.0926
     12 C6          0.9044   -8.7767    1.3825 C.2       1 <0>        -0.4844
     13 C7          1.6804   -8.5072    2.4599 C.2       1 <0>         0.2730
     14 C8          1.8405   -7.0448    2.5886 C.2       1 <0>         0.5110
     15 O1          2.4865   -6.4876    3.4543 O.2       1 <0>        -0.4837
     16 O2          2.2261   -9.4311    3.2838 O.3       1 <0>        -0.6302
     17 C9          0.5070  -10.1020    0.9012 C.2       1 <0>         0.5059
     18 O3         -0.2211  -10.8024    1.5793 O.2       1 <0>        -0.4627
     19 C10         0.9908  -10.5886   -0.4087 C.ar      1 <0>        -0.1397
     20 C11         1.9239   -9.8435   -1.1327 C.ar      1 <0>        -0.0661
     21 C12         2.3708  -10.3032   -2.3539 C.ar      1 <0>        -0.1372
     22 C13         1.8963  -11.4997   -2.8622 C.ar      1 <0>        -0.1044
     23 C14         0.9712  -12.2429   -2.1502 C.ar      1 <0>        -0.1370
     24 C15         0.5208  -11.7982   -0.9247 C.ar      1 <0>        -0.0725
     25 C16        -0.9687   -7.2726    0.7884 C.ar      1 <0>        -0.0545
     26 C17        -1.6220   -7.0114    1.9784 C.ar      1 <0>        -0.0865
     27 C18        -2.9948   -6.8516    1.9927 C.ar      1 <0>        -0.0895
     28 C19        -3.7150   -6.9531    0.8161 C.ar      1 <0>        -0.0900
     29 C20        -3.0609   -7.2145   -0.3743 C.ar      1 <0>        -0.0891
     30 C21        -1.6875   -7.3689   -0.3885 C.ar      1 <0>        -0.0935
     31 Br1        -5.5933   -6.7352    0.8352 Br        1 <0>        -0.0649
     32 H2          1.4855    1.8728    0.0492 H         1 <0>         0.0667
     33 H3         -0.1375    1.9644   -0.6760 H         1 <0>         0.0791
     34 H4          0.0458    1.9329    1.0942 H         1 <0>         0.0667
     35 H5         -0.6708   -0.2796    0.2342 H         1 <0>         0.0955
     36 H6          0.7688   -0.3398   -0.8108 H         1 <0>         0.0955
     37 H7          2.2945   -8.9092   -0.7375 H         1 <0>         0.1311
     38 H8          3.0925   -9.7279   -2.9148 H         1 <0>         0.1224
     39 H9          2.2493  -11.8549   -3.8191 H         1 <0>         0.1193
     40 H10         0.6045  -13.1755   -2.5529 H         1 <0>         0.1217
     41 H11        -0.1975  -12.3815   -0.3678 H         1 <0>         0.1292
     42 H12        -1.0596   -6.9325    2.8970 H         1 <0>         0.1210
     43 H13        -3.5051   -6.6479    2.9225 H         1 <0>         0.1285
     44 H14        -3.6228   -7.2937   -1.2932 H         1 <0>         0.1304
     45 H15        -1.1762   -7.5689   -1.3186 H         1 <0>         0.1313
@<TRIPOS>BOND
     1    1    2 1
     2    1   32 1
     3    1   33 1
     4    1   34 1
     5    2    3 1
     6    2   35 1
     7    2   36 1
     8    3    4 1
     9    4    8 1
    10    4    5 2
    11    5    6 1
    12    6    7 2
    13    7    8 1
    14    7    9 1
    15    9   14 am
    16    9   10 1
    17   10   11 1
    18   10   12 1
    19   10   25 1
    20   12   13 2
    21   12   17 1
    22   13   14 1
    23   13   16 1
    24   14   15 2
    25   17   18 2
    26   17   19 1
    27   19   24 ar
    28   19   20 ar
    29   20   21 ar
    30   20   37 1
    31   21   22 ar
    32   21   38 1
    33   22   23 ar
    34   22   39 1
    35   23   24 ar
    36   23   40 1
    37   24   41 1
    38   25   30 ar
    39   25   26 ar
    40   26   27 ar
    41   26   42 1
    42   27   28 ar
    43   27   43 1
    44   28   29 ar
    45   28   31 1
    46   29   30 ar
    47   29   44 1
    48   30   45 1
@<TRIPOS>MOLECULE
ZINC39886725
   47    51     0     0     0
SMALL
USER_CHARGES

@<TRIPOS>ATOM
      1 C1         -0.0173    1.4248    0.0099 C.3       1 <0>         0.0281
      2 O1          0.0021   -0.0041    0.0020 O.3       1 <0>        -0.3193
      3 C2          0.6058   -0.6071   -1.0557 C.ar      1 <0>         0.1271
      4 C3          1.1730    0.1607   -2.0624 C.ar      1 <0>        -0.2053
      5 C4          1.7865   -0.4547   -3.1363 C.ar      1 <0>        -0.0553
      6 C5          1.8352   -1.8346   -3.2086 C.ar      1 <0>        -0.1071
      7 C6          1.2702   -2.6021   -2.2068 C.ar      1 <0>        -0.0592
      8 C7          0.6609   -1.9915   -1.1277 C.ar      1 <0>        -0.1471
      9 C8          2.5046   -2.5033   -4.3815 C.3       1 <0>         0.0886
     10 H1          2.8887   -1.7464   -5.0653 H         1 <0>         0.0944
     11 C9          3.6328   -3.3639   -3.8957 C.2       1 <0>        -0.2950
     12 C10         4.0206   -4.6068   -4.3107 C.2       1 <0>         0.1119
     13 N1          5.0577   -5.1197   -3.6519 N.2       1 <0>        -0.5569
     14 C11         5.6655   -4.4584   -2.6900 C.2       1 <0>         0.2790
     15 S1          7.0431   -4.9654   -1.7156 S.3       1 <0>        -0.7204
     16 S2          4.8078   -3.0106   -2.6151 S.3       1 <0>         0.0722
     17 S3          3.1736   -5.4288   -5.6521 S.3       1 <0>         0.0090
     18 C12         2.2188   -4.0423   -6.3216 C.3       1 <0>        -0.1457
     19 H2          2.8586   -3.3357   -6.8502 H         1 <0>         0.1563
     20 C13         1.5102   -3.3811   -5.1016 C.3       1 <0>        -0.1150
     21 H3          1.1514   -4.1569   -4.4252 H         1 <0>         0.1409
     22 C14         0.3359   -2.7459   -5.7774 C.2       1 <0>         0.5557
     23 O2         -0.2423   -1.7363   -5.4369 O.2       1 <0>        -0.4347
     24 N2          0.0487   -3.5292   -6.8497 N.am      1 <0>        -0.5359
     25 C15         1.0306   -4.4419   -7.1530 C.2       1 <0>         0.5699
     26 O3          0.9600   -5.3802   -7.9174 O.2       1 <0>        -0.4271
     27 C16        -1.1332   -3.4084   -7.5941 C.ar      1 <0>         0.1291
     28 C17        -2.0764   -2.4489   -7.2509 C.ar      1 <0>        -0.1099
     29 C18        -3.2397   -2.3323   -7.9860 C.ar      1 <0>        -0.0963
     30 C19        -3.4657   -3.1700   -9.0629 C.ar      1 <0>        -0.0846
     31 C20        -2.5284   -4.1264   -9.4070 C.ar      1 <0>        -0.1623
     32 C21        -1.3603   -4.2440   -8.6790 C.ar      1 <0>        -0.0966
     33 C22        -2.7785   -5.0372  -10.5812 C.3       1 <0>         0.5111
     34 F1         -4.0143   -4.7256  -11.1583 F         1 <0>        -0.1764
     35 F2         -1.7644   -4.8649  -11.5294 F         1 <0>        -0.1739
     36 F3         -2.7890   -6.3668  -10.1461 F         1 <0>        -0.1726
     37 H4          1.0053    1.8021    0.0021 H         1 <0>         0.0553
     38 H5         -0.5445    1.7859   -0.8732 H         1 <0>         0.0538
     39 H6         -0.5275    1.7763    0.9067 H         1 <0>         0.0970
     40 H7          1.1347    1.2385   -2.0068 H         1 <0>         0.1260
     41 H8          2.2283    0.1425   -3.9203 H         1 <0>         0.1230
     42 H9          1.3092   -3.6798   -2.2657 H         1 <0>         0.1258
     43 H10         0.2237   -2.5913   -0.3432 H         1 <0>         0.1292
     44 H11        -1.9006   -1.7947   -6.4098 H         1 <0>         0.1639
     45 H12        -3.9738   -1.5864   -7.7193 H         1 <0>         0.1439
     46 H13        -4.3763   -3.0772   -9.6361 H         1 <0>         0.1425
     47 H14        -0.6264   -4.9882   -8.9510 H         1 <0>         0.1630
@<TRIPOS>BOND
     1    1    2 1
     2    1   37 1
     3    1   38 1
     4    1   39 1
     5    2    3 1
     6    3    8 ar
     7    3    4 ar
     8    4    5 ar
     9    4   40 1
    10    5    6 ar
    11    5   41 1
    12    6    7 ar
    13    6    9 1
    14    7    8 ar
    15    7   42 1
    16    8   43 1
    17    9   10 1
    18    9   20 1
    19    9   11 1
    20   11   16 1
    21   11   12 2
    22   12   13 1
    23   12   17 1
    24   13   14 2
    25   14   15 1
    26   14   16 1
    27   17   18 1
    28   18   19 1
    29   18   25 1
    30   18   20 1
    31   20   21 1
    32   20   22 1
    33   22   23 2
    34   22   24 am
    35   24   25 am
    36   24   27 1
    37   25   26 2
    38   27   32 ar
    39   27   28 ar
    40   28   29 ar
    41   28   44 1
    42   29   30 ar
    43   29   45 1
    44   30   31 ar
    45   30   46 1
    46   31   32 ar
    47   31   33 1
    48   32   47 1
    49   33   34 1
    50   33   35 1
    51   33   36 1
@<TRIPOS>MOLECULE
ZINC59366117
   38    40     0     0     0
SMALL
USER_CHARGES

@<TRIPOS>ATOM
      1 C1         -0.0187    1.5258    0.0104 C.3       1 <0>        -0.1470
      2 C2          0.0021   -0.0041    0.0020 C.3       1 <0>         0.0641
      3 O1         -1.3386   -0.4987    0.0122 O.3       1 <0>        -0.3184
      4 C3         -1.4967   -1.8349    0.0065 C.2       1 <0>         0.4996
      5 O2         -0.4187   -2.6399   -0.0081 O.3       1 <0>        -0.6216
      6 C4         -2.7734   -2.3834    0.0157 C.2       1 <0>        -0.4591
      7 C5         -2.9970   -3.8347    0.0101 C.2       1 <0>         0.3236
      8 S1         -4.7704   -3.9926    0.0261 S.3       1 <0>        -0.0743
      9 C6         -5.2391   -2.2751    0.0398 C.2       1 <0>        -0.1415
     10 C7         -6.4958   -1.7474    0.0545 C.2       1 <0>        -0.0276
     11 C8         -7.6216   -2.6026    0.0601 C.2       1 <0>         0.0487
     12 C9         -8.9441   -2.2064    0.0691 C.2       1 <0>        -0.1877
     13 C10        -9.7129   -3.3803    0.0714 C.2       1 <0>        -0.1544
     14 C11        -8.8513   -4.4230    0.0638 C.2       1 <0>        -0.0314
     15 O3         -7.5952   -3.9521    0.0516 O.3       1 <0>        -0.1347
     16 Br1        -9.3389   -6.2500    0.0629 Br        1 <0>         0.0457
     17 C12        -3.9596   -1.5607    0.0376 C.2       1 <0>         0.4245
     18 O4         -3.9002   -0.3418    0.0490 O.2       1 <0>        -0.4823
     19 N1         -2.0942   -4.7972   -0.0040 N.2       1 <0>        -0.4774
     20 C13        -2.4899   -6.1048   -0.0072 C.ar      1 <0>         0.1491
     21 C14        -3.5067   -6.5328    0.8510 C.ar      1 <0>        -0.1663
     22 C15        -3.9014   -7.8541    0.8421 C.ar      1 <0>        -0.0631
     23 C16        -3.2925   -8.7561   -0.0140 C.ar      1 <0>        -0.1237
     24 C17        -2.2842   -8.3393   -0.8666 C.ar      1 <0>        -0.0718
     25 C18        -1.8838   -7.0197   -0.8728 C.ar      1 <0>        -0.1218
     26 Br2        -3.8402  -10.5661   -0.0184 Br        1 <0>        -0.0722
     27 H1          1.0039    1.9031    0.0027 H         1 <0>         0.0681
     28 H2         -0.5459    1.8868   -0.8726 H         1 <0>         0.0616
     29 H3         -0.5289    1.8773    0.9072 H         1 <0>         0.0616
     30 H4          0.5123   -0.3556   -0.8948 H         1 <0>         0.0566
     31 H5          0.5293   -0.3651    0.8851 H         1 <0>         0.0565
     32 H6         -6.6315   -0.6760    0.0620 H         1 <0>         0.1731
     33 H7         -9.3144   -1.1919    0.0739 H         1 <0>         0.1619
     34 H8        -10.7912   -3.4401    0.0784 H         1 <0>         0.1590
     35 H9         -3.9820   -5.8304    1.5197 H         1 <0>         0.1332
     36 H10        -4.6869   -8.1862    1.5047 H         1 <0>         0.1270
     37 H11        -1.8132   -9.0483   -1.5312 H         1 <0>         0.1291
     38 H12        -1.1003   -6.6949   -1.5415 H         1 <0>         0.1333
@<TRIPOS>BOND
     1    1    2 1
     2    1   27 1
     3    1   28 1
     4    1   29 1
     5    2    3 1
     6    2   30 1
     7    2   31 1
     8    3    4 1
     9    4    5 1
    10    4    6 2
    11    6    7 1
    12    6   17 1
    13    7   19 2
    14    7    8 1
    15    8    9 1
    16    9   10 2
    17    9   17 1
    18   10   11 1
    19   10   32 1
    20   11   15 1
    21   11   12 2
    22   12   13 1
    23   12   33 1
    24   13   14 2
    25   13   34 1
    26   14   15 1
    27   14   16 1
    28   17   18 2
    29   19   20 1
    30   20   25 ar
    31   20   21 ar
    32   21   22 ar
    33   21   35 1
    34   22   23 ar
    35   22   36 1
    36   23   24 ar
    37   23   26 1
    38   24   25 ar
    39   24   37 1
    40   25   38 1
@<TRIPOS>MOLECULE
ZINC45941001
   44    47     0     0     0
SMALL
USER_CHARGES

@<TRIPOS>ATOM
      1 C1         -0.0166    1.4599    0.0207 C.3       1 <0>         0.0987
      2 N1          0.0030   -0.0050    0.0178 N.am      1 <0>        -0.5444
      3 C2         -1.1173   -0.8362    0.0128 C.ar      1 <0>         0.1497
      4 C3         -2.4827   -0.5892    0.0103 C.ar      1 <0>        -0.2438
      5 C4         -3.3755   -1.6479    0.0061 C.ar      1 <0>         0.3176
      6 C5         -2.9030   -2.9619    0.0044 C.ar      1 <0>        -0.1428
      7 C6         -1.5394   -3.2094    0.0069 C.ar      1 <0>        -0.0626
      8 C7         -0.6447   -2.1494    0.0111 C.ar      1 <0>         0.0039
      9 N2          0.7486   -2.0762    0.0151 N.am      1 <0>        -0.5382
     10 C8          1.1051   -0.7780    0.0137 C.2       1 <0>         0.6770
     11 O1          2.2502   -0.3658    0.0118 O.2       1 <0>        -0.5826
     12 C9          1.6671   -3.2175    0.0150 C.3       1 <0>         0.1099
     13 S1         -4.0415   -4.3066   -0.0004 S.3       1 <0>         0.0398
     14 C10        -3.0177   -5.7315   -0.1624 C.ar      1 <0>        -0.1445
     15 C11        -2.6164   -6.4331    0.9683 C.ar      1 <0>        -0.0698
     16 C12        -1.8145   -7.5495    0.8375 C.ar      1 <0>        -0.1341
     17 C13        -1.4105   -7.9697   -0.4167 C.ar      1 <0>        -0.1035
     18 C14        -1.8075   -7.2737   -1.5441 C.ar      1 <0>        -0.1333
     19 C15        -2.6141   -6.1598   -1.4215 C.ar      1 <0>        -0.0688
     20 N3         -4.7551   -1.4001    0.0040 N.2       1 <0>        -1.0688
     21 S2         -5.3165    0.1578    0.0066 S.o2      1 <0>         2.6309
     22 O2         -4.9384    0.7237    1.2540 O.2       1 <0>        -1.0127
     23 O3         -4.9336    0.7296   -1.2367 O.2       1 <0>        -1.0146
     24 C16        -7.0767    0.0772    0.0030 C.2       1 <0>        -0.6571
     25 C17        -7.9314    0.0412    1.0541 C.2       1 <0>        -0.0442
     26 C18        -9.2909   -0.0217    0.8112 C.2       1 <0>        -0.1321
     27 C19        -9.7287   -0.0456   -0.4723 C.2       1 <0>        -0.1741
     28 S3         -8.1969    0.0297   -1.3863 S.3       1 <0>         0.2120
     29 Br1       -11.5017   -0.1293   -1.1246 Br        1 <0>         0.0353
     30 H1          1.0061    1.8370    0.0194 H         1 <0>         0.0886
     31 H2         -0.5370    1.8181   -0.8676 H         1 <0>         0.0714
     32 H3         -0.5335    1.8146    0.9124 H         1 <0>         0.0714
     33 H4         -2.8486    0.4269    0.0120 H         1 <0>         0.1115
     34 H5         -1.1741   -4.2257    0.0059 H         1 <0>         0.1175
     35 H6          1.8978   -3.4982   -1.0127 H         1 <0>         0.0598
     36 H7          2.5868   -2.9438    0.5320 H         1 <0>         0.0785
     37 H8          1.2002   -4.0597    0.5256 H         1 <0>         0.0756
     38 H9         -2.9312   -6.1053    1.9481 H         1 <0>         0.1306
     39 H10        -1.5020   -8.0950    1.7157 H         1 <0>         0.1222
     40 H11        -0.7833   -8.8433   -0.5160 H         1 <0>         0.1198
     41 H12        -1.4898   -7.6046   -2.5219 H         1 <0>         0.1222
     42 H13        -2.9273   -5.6194   -2.3025 H         1 <0>         0.1305
     43 H14        -7.5559    0.0611    2.0666 H         1 <0>         0.1526
     44 H15        -9.9936   -0.0518    1.6308 H         1 <0>         0.1450
@<TRIPOS>BOND
     1    1    2 1
     2    1   30 1
     3    1   31 1
     4    1   32 1
     5    2   10 am
     6    2    3 1
     7    3    8 ar
     8    3    4 ar
     9    4    5 ar
    10    4   33 1
    11    5    6 ar
    12    5   20 1
    13    6    7 ar
    14    6   13 1
    15    7    8 ar
    16    7   34 1
    17    8    9 1
    18    9   10 am
    19    9   12 1
    20   10   11 2
    21   12   35 1
    22   12   36 1
    23   12   37 1
    24   13   14 1
    25   14   19 ar
    26   14   15 ar
    27   15   16 ar
    28   15   38 1
    29   16   17 ar
    30   16   39 1
    31   17   18 ar
    32   17   40 1
    33   18   19 ar
    34   18   41 1
    35   19   42 1
    36   20   21 1
    37   21   22 2
    38   21   23 2
    39   21   24 1
    40   24   28 1
    41   24   25 2
    42   25   26 1
    43   25   43 1
    44   26   27 2
    45   26   44 1
    46   27   28 1
    47   27   29 1
@<TRIPOS>MOLECULE
ZINC13253571
   47    50     0     0     0
SMALL
USER_CHARGES
2-[[5-(4-bromophenyl)-4-phenethyl-1,2,4-triazol-3-yl]sulfanylmethyl]furan-3-carboxylic acid
@<TRIPOS>ATOM
      1 C1         -0.0282    6.9080    8.4529 C.ar      1 <0>        -0.1193
      2 C2          0.6593    6.1292    7.5410 C.ar      1 <0>        -0.1151
      3 C3          0.4365    6.2918    6.1865 C.ar      1 <0>        -0.1079
      4 C4         -0.4734    7.2336    5.7438 C.ar      1 <0>        -0.0851
      5 C5         -1.1567    8.0164    6.6555 C.ar      1 <0>        -0.1160
      6 C6         -0.9382    7.8498    8.0103 C.ar      1 <0>        -0.1179
      7 C7         -0.7159    7.4112    4.2671 C.3       1 <0>        -0.1021
      8 C8         -1.8471    6.4827    3.8207 C.3       1 <0>         0.0998
      9 N1         -2.0828    6.6554    2.3852 N.pl3     1 <0>        -0.4573
     10 C9         -2.9945    7.4948    1.7874 C.2       1 <0>         0.1996
     11 N2         -2.8727    7.3349    0.4902 N.2       1 <0>        -0.2564
     12 N3         -1.9564    6.4696    0.2390 N.2       1 <0>        -0.2860
     13 C10        -1.4435    6.0166    1.3612 C.2       1 <0>         0.1807
     14 S1         -0.1642    4.8149    1.5156 S.3       1 <0>         0.0280
     15 C11         0.1469    4.4607   -0.2320 C.3       1 <0>        -0.0062
     16 C12         1.2377    3.4275   -0.3486 C.2       1 <0>        -0.0055
     17 C13         1.0563    2.0750   -0.3826 C.2       1 <0>        -0.1603
     18 C14         2.4033    1.4985   -0.5082 C.2       1 <0>        -0.1767
     19 C15         3.2492    2.5395   -0.5317 C.2       1 <0>        -0.0530
     20 O1          2.5473    3.6793   -0.4332 O.3       1 <0>        -0.1848
     21 C16        -0.2211    1.3462   -0.3142 C.2       1 <0>         0.5120
     22 O2         -1.2660    1.9592   -0.2158 O.co2     1 <0>        -0.6204
     23 C17        -3.9339    8.4051    2.4762 C.ar      1 <0>         0.0157
     24 C18        -3.7043    8.7771    3.8017 C.ar      1 <0>        -0.1200
     25 C19        -4.5819    9.6306    4.4374 C.ar      1 <0>        -0.0849
     26 C20        -5.6943   10.1097    3.7667 C.ar      1 <0>        -0.0845
     27 C21        -5.9303    9.7401    2.4534 C.ar      1 <0>        -0.0847
     28 C22        -5.0572    8.8914    1.8053 C.ar      1 <0>        -0.0716
     29 Br1        -6.8967   11.2730    4.6480 Br        1 <0>        -0.0483
     30 H1          0.1453    6.7805    9.5112 H         1 <0>         0.1218
     31 H2          1.3702    5.3934    7.8868 H         1 <0>         0.1246
     32 H3          0.9737    5.6833    5.4740 H         1 <0>         0.1274
     33 H4         -1.8644    8.7552    6.3095 H         1 <0>         0.1206
     34 H5         -1.4756    8.4581    8.7227 H         1 <0>         0.1228
     35 H6          0.1931    7.1666    3.7176 H         1 <0>         0.0918
     36 H7         -0.9944    8.4457    4.0664 H         1 <0>         0.0837
     37 H8         -2.7561    6.7274    4.3702 H         1 <0>         0.1070
     38 H9         -1.5686    5.4482    4.0213 H         1 <0>         0.1073
     39 H10         0.4567    5.3749   -0.7384 H         1 <0>         0.1039
     40 H11        -0.7644    4.0807   -0.6935 H         1 <0>         0.1458
     41 H12         2.6593    0.4510   -0.5690 H         1 <0>         0.1536
     42 H13         4.3237    2.4713   -0.6168 H         1 <0>         0.2016
     43 H14        -2.8391    8.4008    4.3273 H         1 <0>         0.1409
     44 H15        -4.4030    9.9227    5.4616 H         1 <0>         0.1382
     45 H16        -6.8000   10.1168    1.9356 H         1 <0>         0.1412
     46 H17        -5.2425    8.6036    0.7810 H         1 <0>         0.1477
     47 O3         -0.2323   -0.0004   -0.3664 O.co2     1 <0>        -0.7517
@<TRIPOS>BOND
     1    1    6 ar
     2    1    2 ar
     3    1   30 1
     4    2    3 ar
     5    2   31 1
     6    3    4 ar
     7    3   32 1
     8    4    5 ar
     9    4    7 1
    10    5    6 ar
    11    5   33 1
    12    6   34 1
    13    7    8 1
    14    7   35 1
    15    7   36 1
    16    8    9 1
    17    8   37 1
    18    8   38 1
    19    9   13 1
    20    9   10 1
    21   10   11 2
    22   10   23 1
    23   11   12 1
    24   12   13 2
    25   13   14 1
    26   14   15 1
    27   15   16 1
    28   15   39 1
    29   15   40 1
    30   16   20 1
    31   16   17 2
    32   17   18 1
    33   17   21 1
    34   18   19 2
    35   18   41 1
    36   19   20 1
    37   19   42 1
    38   21   22 2
    39   21   47 1
    40   23   28 ar
    41   23   24 ar
    42   24   25 ar
    43   24   43 1
    44   25   26 ar
    45   25   44 1
    46   26   27 ar
    47   26   29 1
    48   27   28 ar
    49   27   45 1
    50   28   46 1
@<TRIPOS>MOLECULE
ZINC09088837
   50    53     0     0     0
SMALL
USER_CHARGES
(5R)-5-(2-fluorophenyl)-3-hydroxy-4-(4-methoxybenzoyl)-1-[3-(trifluoromethyl)phenyl]-5H-pyrrol-2-one
@<TRIPOS>ATOM
      1 C1          1.6486    5.9343    6.3450 C.3       1 <0>         0.0237
      2 O1          0.6318    6.3323    5.4231 O.3       1 <0>        -0.3183
      3 C2          0.6456    5.7455    4.1997 C.ar      1 <0>         0.1396
      4 C3         -0.3161    6.0881    3.2556 C.ar      1 <0>        -0.1668
      5 C4         -0.3057    5.4952    2.0133 C.ar      1 <0>        -0.0335
      6 C5          0.6737    4.5473    1.7014 C.ar      1 <0>        -0.1706
      7 C6          1.6354    4.2015    2.6556 C.ar      1 <0>        -0.0210
      8 C7          1.6211    4.8031    3.8937 C.ar      1 <0>        -0.2232
      9 C8          0.6887    3.9090    0.3704 C.2       1 <0>         0.5096
     10 O2         -0.1174    4.2480   -0.4761 O.2       1 <0>        -0.4725
     11 C9          1.6745    2.8669    0.0683 C.2       1 <0>        -0.4917
     12 C10         1.4192    1.5596   -0.1734 C.2       1 <0>         0.2675
     13 C11         2.6926    0.8554   -0.4282 C.2       1 <0>         0.5120
     14 O3          2.7968   -0.3305   -0.6722 O.2       1 <0>        -0.5022
     15 N1          3.7195    1.7213   -0.3535 N.am      1 <0>        -0.5539
     16 C12         3.1714    3.0448   -0.0341 C.3       1 <0>         0.2634
     17 H1          3.6108    3.4182    0.9026 H         1 <0>         0.0826
     18 C13         3.5032    4.0219   -1.1324 C.ar      1 <0>        -0.1127
     19 C14         3.7746    3.5628   -2.4075 C.ar      1 <0>        -0.0737
     20 C15         4.0785    4.4588   -3.4152 C.ar      1 <0>        -0.1270
     21 C16         4.1108    5.8152   -3.1490 C.ar      1 <0>        -0.0984
     22 C17         3.8403    6.2765   -1.8750 C.ar      1 <0>        -0.1540
     23 C18         3.5306    5.3801   -0.8659 C.ar      1 <0>         0.1052
     24 F1          3.2599    5.8304    0.3788 F         1 <0>        -0.1332
     25 C19         5.0699    1.4138   -0.5409 C.ar      1 <0>         0.1934
     26 C20         6.0328    2.4090   -0.4280 C.ar      1 <0>        -0.1288
     27 C21         7.3661    2.1016   -0.6134 C.ar      1 <0>        -0.0891
     28 C22         7.7435    0.8048   -0.9115 C.ar      1 <0>        -0.1121
     29 C23         6.7878   -0.1879   -1.0251 C.ar      1 <0>        -0.1538
     30 C24         5.4529    0.1114   -0.8348 C.ar      1 <0>        -0.1155
     31 C25         7.2037   -1.5994   -1.3506 C.3       1 <0>         0.5104
     32 F2          8.5945   -1.6552   -1.4905 F         1 <0>        -0.1799
     33 F3          6.8044   -2.4533   -0.3169 F         1 <0>        -0.1752
     34 F4          6.5982   -1.9999   -2.5465 F         1 <0>        -0.1751
     35 O4          0.1931    0.9876   -0.1756 O.3       1 <0>        -0.6393
     36 H2          1.5217    6.4827    7.2901 H         1 <0>         0.0982
     37 H3          2.6377    6.1602    5.9200 H         1 <0>         0.0565
     38 H4          1.5690    4.8537    6.5346 H         1 <0>         0.0569
     39 H5         -1.0725    6.8201    3.4975 H         1 <0>         0.1302
     40 H6         -1.0533    5.7615    1.2807 H         1 <0>         0.1364
     41 H7          2.3910    3.4666    2.4201 H         1 <0>         0.1321
     42 H8          2.3660    4.5395    4.6299 H         1 <0>         0.1277
     43 H9          3.7496    2.5035   -2.6166 H         1 <0>         0.1239
     44 H10         4.2904    4.0992   -4.4112 H         1 <0>         0.1255
     45 H11         4.3480    6.5145   -3.9372 H         1 <0>         0.1280
     46 H12         3.8659    7.3360   -1.6673 H         1 <0>         0.1320
     47 H13         5.7387    3.4220   -0.1959 H         1 <0>         0.1326
     48 H14         8.1151    2.8747   -0.5257 H         1 <0>         0.1356
     49 H15         8.7870    0.5672   -1.0563 H         1 <0>         0.1351
     50 H16         4.7073   -0.6654   -0.9190 H         1 <0>         0.1632
@<TRIPOS>BOND
     1    1    2 1
     2    1   36 1
     3    1   37 1
     4    1   38 1
     5    2    3 1
     6    3    8 ar
     7    3    4 ar
     8    4    5 ar
     9    4   39 1
    10    5    6 ar
    11    5   40 1
    12    6    7 ar
    13    6    9 1
    14    7    8 ar
    15    7   41 1
    16    8   42 1
    17    9   10 2
    18    9   11 1
    19   11   16 1
    20   11   12 2
    21   12   13 1
    22   12   35 1
    23   13   14 2
    24   13   15 am
    25   15   16 1
    26   15   25 1
    27   16   17 1
    28   16   18 1
    29   18   23 ar
    30   18   19 ar
    31   19   20 ar
    32   19   43 1
    33   20   21 ar
    34   20   44 1
    35   21   22 ar
    36   21   45 1
    37   22   23 ar
    38   22   46 1
    39   23   24 1
    40   25   30 ar
    41   25   26 ar
    42   26   27 ar
    43   26   47 1
    44   27   28 ar
    45   27   48 1
    46   28   29 ar
    47   28   49 1
    48   29   30 ar
    49   29   31 1
    50   30   50 1
    51   31   32 1
    52   31   33 1
    53   31   34 1
@<TRIPOS>MOLECULE
ZINC34933563
   53    57     0     0     0
SMALL
USER_CHARGES

@<TRIPOS>ATOM
      1 C1         -0.4616   -0.1121   -1.3796 C.ar      1 <0>        -0.1132
      2 C2          0.7224    0.5486   -1.6490 C.ar      1 <0>        -0.1246
      3 C3          1.9299   -0.1064   -1.4946 C.ar      1 <0>        -0.0955
      4 C4          1.9535   -1.4218   -1.0703 C.ar      1 <0>        -0.0916
      5 C5          0.7695   -2.0821   -0.8001 C.ar      1 <0>        -0.0948
      6 C6         -0.4381   -1.4277   -0.9558 C.ar      1 <0>        -0.1238
      7 C7          3.2698   -2.1361   -0.9030 C.3       1 <0>         0.1020
      8 O1          3.7478   -1.9477    0.4305 O.3       1 <0>        -0.3089
      9 C8          4.9328   -2.5316    0.7494 C.ar      1 <0>         0.1265
     10 C9          5.6243   -3.2659   -0.2034 C.ar      1 <0>        -0.2131
     11 C10         6.8288   -3.8580    0.1231 C.ar      1 <0>        -0.0802
     12 C11         7.3456   -3.7194    1.3983 C.ar      1 <0>        -0.1272
     13 C12         6.6583   -2.9886    2.3495 C.ar      1 <0>        -0.0230
     14 C13         5.4559   -2.3897    2.0263 C.ar      1 <0>        -0.1308
     15 C14         7.2241   -2.8400    3.7383 C.3       1 <0>         0.2677
     16 H1          6.7502   -2.0010    4.2479 H         1 <0>         0.0867
     17 C15         7.0119   -4.1126    4.5247 C.2       1 <0>        -0.4884
     18 C16         5.7254   -4.7309    4.8566 C.2       1 <0>         0.5055
     19 C17         4.7679   -4.0211    5.7306 C.ar      1 <0>        -0.1317
     20 C18         5.1301   -2.8139    6.3329 C.ar      1 <0>        -0.0541
     21 C19         4.2325   -2.1566    7.1471 C.ar      1 <0>        -0.1254
     22 C20         2.9737   -2.6912    7.3689 C.ar      1 <0>        -0.0191
     23 C21         2.6086   -3.8882    6.7744 C.ar      1 <0>        -0.1253
     24 C22         3.4951   -4.5519    5.9532 C.ar      1 <0>        -0.0607
     25 Cl1         1.8495   -1.8581    8.3965 Cl        1 <0>        -0.0791
     26 O2          5.4455   -5.8287    4.4126 O.2       1 <0>        -0.4615
     27 C23         8.2402   -4.5717    4.8633 C.2       1 <0>         0.2739
     28 O3          8.4885   -5.6950    5.5752 O.3       1 <0>        -0.6333
     29 C24         9.2658   -3.6515    4.3313 C.2       1 <0>         0.5117
     30 O4         10.4653   -3.7902    4.4679 O.2       1 <0>        -0.4900
     31 N1          8.6762   -2.6373    3.6726 N.am      1 <0>        -0.5057
     32 C25         9.3261   -1.5852    3.0429 C.2       1 <0>         0.3042
     33 N2          8.7986   -0.5695    2.3934 N.2       1 <0>        -0.5558
     34 C26         9.5596    0.3585    1.8446 C.2       1 <0>         0.0690
     35 C27        10.9014    0.2156    1.9817 C.2       1 <0>        -0.2889
     36 S1         10.9800   -1.2946    2.9308 S.3       1 <0>         0.1523
     37 H2         -1.4048    0.4010   -1.4959 H         1 <0>         0.1223
     38 H3          0.7040    1.5763   -1.9805 H         1 <0>         0.1237
     39 H4          2.8549    0.4096   -1.7058 H         1 <0>         0.1240
     40 H5          0.7879   -3.1100   -0.4690 H         1 <0>         0.1249
     41 H6         -1.3631   -1.9437   -0.7450 H         1 <0>         0.1242
     42 H7          3.1323   -3.2006   -1.0927 H         1 <0>         0.0694
     43 H8          3.9949   -1.7319   -1.6093 H         1 <0>         0.0686
     44 H9          5.2210   -3.3748   -1.1993 H         1 <0>         0.1213
     45 H10         7.3673   -4.4299   -0.6181 H         1 <0>         0.1198
     46 H11         8.2875   -4.1830    1.6516 H         1 <0>         0.1123
     47 H12         4.9215   -1.8152    2.7684 H         1 <0>         0.1269
     48 H13         6.1112   -2.3965    6.1613 H         1 <0>         0.1421
     49 H14         4.5113   -1.2231    7.6134 H         1 <0>         0.1344
     50 H15         1.6260   -4.3000    6.9511 H         1 <0>         0.1334
     51 H16         3.2077   -5.4826    5.4867 H         1 <0>         0.1397
     52 H17         9.1330    1.1943    1.3100 H         1 <0>         0.1685
     53 H18        11.7016    0.8442    1.6197 H         1 <0>         0.1907
@<TRIPOS>BOND
     1    1    6 ar
     2    1    2 ar
     3    1   37 1
     4    2    3 ar
     5    2   38 1
     6    3    4 ar
     7    3   39 1
     8    4    5 ar
     9    4    7 1
    10    5    6 ar
    11    5   40 1
    12    6   41 1
    13    7    8 1
    14    7   42 1
    15    7   43 1
    16    8    9 1
    17    9   14 ar
    18    9   10 ar
    19   10   11 ar
    20   10   44 1
    21   11   12 ar
    22   11   45 1
    23   12   13 ar
    24   12   46 1
    25   13   14 ar
    26   13   15 1
    27   14   47 1
    28   15   17 1
    29   15   31 1
    30   15   16 1
    31   17   27 2
    32   17   18 1
    33   18   26 2
    34   18   19 1
    35   19   24 ar
    36   19   20 ar
    37   20   21 ar
    38   20   48 1
    39   21   22 ar
    40   21   49 1
    41   22   23 ar
    42   22   25 1
    43   23   24 ar
    44   23   50 1
    45   24   51 1
    46   27   29 1
    47   27   28 1
    48   29   31 am
    49   29   30 2
    50   31   32 1
    51   32   36 1
    52   32   33 2
    53   33   34 1
    54   34   35 2
    55   34   52 1
    56   35   36 1
    57   35   53 1
@<TRIPOS>MOLECULE
ZINC40030223
   58    61     0     0     0
SMALL
USER_CHARGES

@<TRIPOS>ATOM
      1 C1          1.0596    0.9962    1.5326 C.3       1 <0>         0.0297
      2 O1          1.1327   -0.4179    1.3404 O.3       1 <0>        -0.3216
      3 C2          1.4288   -0.8559    0.0884 C.ar      1 <0>         0.1141
      4 C3          1.6503    0.0568   -0.9327 C.ar      1 <0>        -0.2078
      5 C4          1.9516   -0.3910   -2.2044 C.ar      1 <0>        -0.0763
      6 C5          2.0322   -1.7474   -2.4600 C.ar      1 <0>        -0.1057
      7 C6          1.8114   -2.6590   -1.4441 C.ar      1 <0>        -0.0516
      8 C7          1.5158   -2.2163   -0.1694 C.ar      1 <0>        -0.1499
      9 C8          2.3606   -2.2331   -3.8483 C.3       1 <0>         0.2669
     10 H1          2.2300   -1.4251   -4.5682 H         1 <0>         0.0693
     11 C9          3.7805   -2.7472   -3.8964 C.2       1 <0>        -0.5004
     12 C10         3.7114   -4.0532   -4.2458 C.2       1 <0>         0.2653
     13 C11         2.2946   -4.4312   -4.4334 C.2       1 <0>         0.5120
     14 O2          1.9040   -5.5374   -4.7493 O.2       1 <0>        -0.5335
     15 N1          1.5005   -3.3683   -4.2023 N.am      1 <0>        -0.6098
     16 C12         0.0382   -3.3480   -4.2883 C.3       1 <0>         0.1616
     17 C13        -0.3775   -2.9784   -5.6889 C.2       1 <0>        -0.1675
     18 C14        -1.1822   -3.7631   -6.3619 C.2       1 <0>        -0.1803
     19 O3          4.7704   -4.8807   -4.3991 O.3       1 <0>        -0.6517
     20 C15         4.9981   -1.9797   -3.6187 C.2       1 <0>         0.5020
     21 O4          5.7031   -2.2785   -2.6733 O.2       1 <0>        -0.4680
     22 C16         5.3694   -0.8424   -4.4876 C.ar      1 <0>        -0.0954
     23 C17         4.6248   -0.5657   -5.6367 C.ar      1 <0>        -0.0997
     24 C18         4.9739    0.4963   -6.4446 C.ar      1 <0>        -0.0982
     25 C19         6.0599    1.2896   -6.1209 C.ar      1 <0>        -0.1956
     26 C20         6.8063    1.0222   -4.9810 C.ar      1 <0>         0.1093
     27 C21         6.4616   -0.0378   -4.1596 C.ar      1 <0>        -0.1038
     28 O5          7.8725    1.8048   -4.6683 O.3       1 <0>        -0.3091
     29 C22         8.1676    2.8845   -5.5568 C.3       1 <0>         0.1005
     30 C23         9.3728    3.6353   -5.0522 C.ar      1 <0>        -0.0877
     31 C24         9.2110    4.6953   -4.1796 C.ar      1 <0>        -0.0819
     32 C25        10.3160    5.3843   -3.7164 C.ar      1 <0>        -0.1142
     33 C26        11.5842    5.0130   -4.1262 C.ar      1 <0>        -0.0269
     34 C27        11.7455    3.9521   -4.9995 C.ar      1 <0>        -0.1136
     35 C28        10.6401    3.2602   -5.4576 C.ar      1 <0>        -0.0813
     36 Cl1        12.9726    5.8783   -3.5453 Cl        1 <0>        -0.0704
     37 H2          2.0206    1.4468    1.2844 H         1 <0>         0.0533
     38 H3          0.2860    1.4112    0.8865 H         1 <0>         0.0521
     39 H4          0.8164    1.2093    2.5735 H         1 <0>         0.0947
     40 H5          1.5868    1.1164   -0.7337 H         1 <0>         0.1224
     41 H6          2.1241    0.3191   -2.9996 H         1 <0>         0.1217
     42 H7          1.8745   -3.7180   -1.6464 H         1 <0>         0.1243
     43 H8          1.3478   -2.9286    0.6248 H         1 <0>         0.1256
     44 H9         -0.3540   -4.3346   -4.0413 H         1 <0>         0.0811
     45 H10        -0.3569   -2.6137   -3.5863 H         1 <0>         0.0833
     46 H11        -0.0121   -2.0666   -6.1378 H         1 <0>         0.1091
     47 H12        -1.4801   -3.4982   -7.3656 H         1 <0>         0.0957
     48 H13        -1.5476   -4.6749   -5.9130 H         1 <0>         0.0967
     49 H14         3.7766   -1.1833   -5.8926 H         1 <0>         0.1364
     50 H15         4.3978    0.7090   -7.3329 H         1 <0>         0.1253
     51 H16         6.3284    2.1198   -6.7573 H         1 <0>         0.1239
     52 H17         7.0385   -0.2439   -3.2702 H         1 <0>         0.1366
     53 H18         8.3754    2.4900   -6.5515 H         1 <0>         0.0727
     54 H19         7.3130    3.5593   -5.6049 H         1 <0>         0.0724
     55 H20         8.2210    4.9853   -3.8601 H         1 <0>         0.1353
     56 H21        10.1895    6.2126   -3.0350 H         1 <0>         0.1360
     57 H22        12.7352    3.6620   -5.3200 H         1 <0>         0.1364
     58 H23        10.7662    2.4290   -6.1355 H         1 <0>         0.1361
@<TRIPOS>BOND
     1    1    2 1
     2    1   37 1
     3    1   38 1
     4    1   39 1
     5    2    3 1
     6    3    8 ar
     7    3    4 ar
     8    4    5 ar
     9    4   40 1
    10    5    6 ar
    11    5   41 1
    12    6    7 ar
    13    6    9 1
    14    7    8 ar
    15    7   42 1
    16    8   43 1
    17    9   10 1
    18    9   15 1
    19    9   11 1
    20   11   12 2
    21   11   20 1
    22   12   13 1
    23   12   19 1
    24   13   14 2
    25   13   15 am
    26   15   16 1
    27   16   17 1
    28   16   44 1
    29   16   45 1
    30   17   18 2
    31   17   46 1
    32   18   47 1
    33   18   48 1
    34   20   21 2
    35   20   22 1
    36   22   27 ar
    37   22   23 ar
    38   23   24 ar
    39   23   49 1
    40   24   25 ar
    41   24   50 1
    42   25   26 ar
    43   25   51 1
    44   26   27 ar
    45   26   28 1
    46   27   52 1
    47   28   29 1
    48   29   30 1
    49   29   53 1
    50   29   54 1
    51   30   35 ar
    52   30   31 ar
    53   31   32 ar
    54   31   55 1
    55   32   33 ar
    56   32   56 1
    57   33   34 ar
    58   33   36 1
    59   34   35 ar
    60   34   57 1
    61   35   58 1
@<TRIPOS>MOLECULE
ZINC59862266
   52    54     0     0     0
SMALL
USER_CHARGES

@<TRIPOS>ATOM
      1 C1         -0.5443    1.8413   -4.2768 C.3       1 <0>        -0.1511
      2 C2         -0.3974    0.3518   -4.5941 C.3       1 <0>        -0.1230
      3 C3          0.2535   -0.3608   -3.4070 C.3       1 <0>        -0.1183
      4 C4          0.4004   -1.8503   -3.7244 C.3       1 <0>         0.0568
      5 O1          1.0084   -2.5159   -2.6156 O.3       1 <0>        -0.3167
      6 C5          1.2117   -3.8515   -2.7352 C.ar      1 <0>         0.1468
      7 C6          0.8365   -4.5075   -3.9039 C.ar      1 <0>        -0.2200
      8 C7          1.0381   -5.8521   -4.0305 C.ar      1 <0>         0.0271
      9 C8          1.6254   -6.5726   -2.9788 C.ar      1 <0>        -0.1231
     10 C9          2.0018   -5.9049   -1.8029 C.ar      1 <0>        -0.0498
     11 C10         1.7997   -4.5592   -1.6910 C.ar      1 <0>        -0.1714
     12 C11         1.8437   -8.0129   -3.1074 C.2       1 <0>         0.0611
     13 C12         2.3909   -8.5280   -4.2674 C.2       1 <0>        -0.2795
     14 C13         2.9760   -7.6495   -5.3036 C.2       1 <0>         0.5373
     15 N1          3.4906   -8.2186   -6.4056 N.2       1 <0>        -0.6657
     16 C14         3.4874   -9.5160   -6.5833 C.2       1 <0>         0.6374
     17 O2          4.0251  -10.0032   -7.7184 O.3       1 <0>        -0.6436
     18 N2          2.9723  -10.3998   -5.6866 N.am      1 <0>        -0.5347
     19 C15         2.4241   -9.9796   -4.5265 C.2       1 <0>         0.5665
     20 O3          1.9683  -10.7721   -3.7233 O.2       1 <0>        -0.5201
     21 C16         3.0168  -11.7718   -5.9694 C.ar      1 <0>         0.1827
     22 C17         4.1073  -12.5304   -5.5650 C.ar      1 <0>        -0.0988
     23 C18         4.1487  -13.8819   -5.8450 C.ar      1 <0>        -0.0858
     24 C19         3.1048  -14.4805   -6.5284 C.ar      1 <0>        -0.0898
     25 C20         2.0172  -13.7271   -6.9324 C.ar      1 <0>        -0.0540
     26 C21         1.9681  -12.3759   -6.6494 C.ar      1 <0>        -0.0617
     27 C22         0.7799  -11.5571   -7.0840 C.3       1 <0>        -0.1094
     28 C23         0.8824  -14.3821   -7.6768 C.3       1 <0>        -0.1209
     29 Br1         3.1655  -16.3313   -6.9111 Br        1 <0>        -0.0588
     30 O4          2.9902   -6.4387   -5.1610 O.2       1 <0>        -0.5269
     31 H1         -1.1691    1.9644   -3.3921 H         1 <0>         0.0546
     32 H2          0.4395    2.2717   -4.0896 H         1 <0>         0.0554
     33 H3         -1.0081    2.3490   -5.1225 H         1 <0>         0.0558
     34 H4         -1.3812   -0.0785   -4.7813 H         1 <0>         0.0647
     35 H5          0.2273    0.2287   -5.4788 H         1 <0>         0.0662
     36 H6          1.2373    0.0696   -3.2198 H         1 <0>         0.0731
     37 H7         -0.3712   -0.2377   -2.5223 H         1 <0>         0.0719
     38 H8         -0.5834   -2.2807   -3.9115 H         1 <0>         0.0616
     39 H9          1.0251   -1.9734   -4.6091 H         1 <0>         0.0648
     40 H10         0.3847   -3.9520   -4.7124 H         1 <0>         0.1252
     41 H11         0.7459   -6.3601   -4.9376 H         1 <0>         0.1215
     42 H12         2.4542   -6.4537   -0.9902 H         1 <0>         0.1286
     43 H13         2.0929   -4.0435   -0.7885 H         1 <0>         0.1277
     44 H14         1.5773   -8.6740   -2.2960 H         1 <0>         0.1381
     45 H15         4.9226  -12.0636   -5.0323 H         1 <0>         0.1297
     46 H16         4.9967  -14.4723   -5.5307 H         1 <0>         0.1342
     47 H17         0.9583  -11.1599   -8.0832 H         1 <0>         0.0788
     48 H18        -0.1100  -12.1864   -7.0967 H         1 <0>         0.0703
     49 H19         0.6320  -10.7328   -6.3863 H         1 <0>         0.0607
     50 H20         0.1391  -14.7399   -6.9644 H         1 <0>         0.0753
     51 H21         0.4225  -13.6575   -8.3488 H         1 <0>         0.0736
     52 H22         1.2649  -15.2227   -8.2558 H         1 <0>         0.0755
@<TRIPOS>BOND
     1    1    2 1
     2    1   31 1
     3    1   32 1
     4    1   33 1
     5    2    3 1
     6    2   34 1
     7    2   35 1
     8    3    4 1
     9    3   36 1
    10    3   37 1
    11    4    5 1
    12    4   38 1
    13    4   39 1
    14    5    6 1
    15    6   11 ar
    16    6    7 ar
    17    7    8 ar
    18    7   40 1
    19    8    9 ar
    20    8   41 1
    21    9   10 ar
    22    9   12 1
    23   10   11 ar
    24   10   42 1
    25   11   43 1
    26   12   13 2
    27   12   44 1
    28   13   19 1
    29   13   14 1
    30   14   15 1
    31   14   30 2
    32   15   16 2
    33   16   17 1
    34   16   18 1
    35   18   19 am
    36   18   21 1
    37   19   20 2
    38   21   26 ar
    39   21   22 ar
    40   22   23 ar
    41   22   45 1
    42   23   24 ar
    43   23   46 1
    44   24   25 ar
    45   24   29 1
    46   25   26 ar
    47   25   28 1
    48   26   27 1
    49   27   47 1
    50   27   48 1
    51   27   49 1
    52   28   50 1
    53   28   51 1
    54   28   52 1
@<TRIPOS>MOLECULE
ZINC06936827
   55    57     0     0     0
SMALL
USER_CHARGES
6-[(3-cyano-6-propyl-4,5,6,7-tetrahydrobenzothiophen-2-yl)carbamoyl]-3,4-dimethyl-cyclohex-3-ene-1-carboxylic acid
@<TRIPOS>ATOM
      1 C1         -5.0715    8.0209    2.2165 C.3       1 <0>        -0.1532
      2 C2         -3.8936    7.0645    2.4137 C.3       1 <0>        -0.1278
      3 C3         -4.2410    5.6982    1.8189 C.3       1 <0>        -0.1133
      4 C4         -3.0631    4.7418    2.0161 C.3       1 <0>        -0.0824
      5 H1         -2.7937    4.7036    3.0716 H         1 <0>         0.0754
      6 C5         -3.4530    3.3413    1.5348 C.3       1 <0>        -0.1120
      7 C6         -2.3826    2.3311    1.9513 C.3       1 <0>        -0.0600
      8 C7         -1.0229    2.8377    1.4863 C.2       1 <0>        -0.0510
      9 C8         -0.8373    4.1371    1.1644 C.2       1 <0>        -0.2311
     10 S1          0.8634    4.2453    0.6848 S.3       1 <0>         0.2372
     11 C9          1.3246    2.5912    0.9155 C.2       1 <0>         0.1291
     12 C10         0.1530    1.9949    1.3574 C.2       1 <0>        -0.1598
     13 C11         0.1030    0.5983    1.6696 C.1       1 <0>         0.2771
     14 N1          0.0633   -0.5097    1.9172 N.1       1 <0>        -0.4371
     15 N2          2.5656    2.0050    0.7083 N.am      1 <0>        -0.5980
     16 C12         3.5990    2.7516    0.2712 C.2       1 <0>         0.5341
     17 O1          3.4446    3.9357    0.0590 O.2       1 <0>        -0.4982
     18 C13         4.9463    2.1152    0.0463 C.3       1 <0>        -0.0829
     19 H2          5.0120    1.1864    0.6130 H         1 <0>         0.0949
     20 C14         6.0500    3.0734    0.4995 C.3       1 <0>        -0.0583
     21 C15         6.1378    4.2414   -0.4387 C.2       1 <0>        -0.1379
     22 C16         5.6244    4.2575   -1.6269 C.2       1 <0>        -0.0992
     23 C17         4.8613    3.1140   -2.2286 C.3       1 <0>        -0.0604
     24 C18         5.1375    1.8271   -1.4482 C.3       1 <0>        -0.1175
     25 H3          6.1614    1.5011   -1.6305 H         1 <0>         0.0879
     26 C19         4.1742    0.7534   -1.8844 C.2       1 <0>         0.4663
     27 O2          3.4109    0.2655   -1.0849 O.co2     1 <0>        -0.6404
     28 C20         5.8046    5.5018   -2.4577 C.3       1 <0>        -0.1137
     29 C21         6.8688    5.4723    0.0319 C.3       1 <0>        -0.1102
     30 C22        -1.8580    5.2322    1.2050 C.3       1 <0>        -0.0232
     31 H4         -4.8240    8.9942    2.6402 H         1 <0>         0.0516
     32 H5         -5.2767    8.1298    1.1516 H         1 <0>         0.0531
     33 H6         -5.9528    7.6200    2.7173 H         1 <0>         0.0515
     34 H7         -3.6884    6.9556    3.4786 H         1 <0>         0.0609
     35 H8         -3.0124    7.4653    1.9129 H         1 <0>         0.0649
     36 H9         -4.4462    5.8071    0.7540 H         1 <0>         0.0641
     37 H10        -5.1223    5.2974    2.3197 H         1 <0>         0.0631
     38 H11        -3.5450    3.3443    0.4487 H         1 <0>         0.0675
     39 H12        -4.4086    3.0594    1.9770 H         1 <0>         0.0673
     40 H13        -2.5908    1.3663    1.4887 H         1 <0>         0.0732
     41 H14        -2.3818    2.2259    3.0362 H         1 <0>         0.0763
     42 H15         2.6890    1.0580    0.8781 H         1 <0>         0.4322
     43 H16         5.8264    3.4329    1.5039 H         1 <0>         0.0681
     44 H17         7.0044    2.5470    0.5082 H         1 <0>         0.0788
     45 H18         3.7943    3.3344   -2.1954 H         1 <0>         0.0689
     46 H19         5.1702    2.9791   -3.2651 H         1 <0>         0.0756
     47 H20         6.8657    5.7403   -2.5294 H         1 <0>         0.0583
     48 H21         5.4018    5.3332   -3.4564 H         1 <0>         0.0554
     49 H22         5.2765    6.3318   -1.9883 H         1 <0>         0.0632
     50 H23         7.9004    5.4386   -0.3187 H         1 <0>         0.0568
     51 H24         6.3786    6.3606   -0.3666 H         1 <0>         0.0615
     52 H25         6.8563    5.5082    1.1212 H         1 <0>         0.0524
     53 H26        -1.4271    6.1187    1.6704 H         1 <0>         0.0790
     54 H27        -2.1824    5.4696    0.1919 H         1 <0>         0.0785
     55 O3          4.1642    0.3390   -3.1611 O.co2     1 <0>        -0.7565
@<TRIPOS>BOND
     1    1    2 1
     2    1   31 1
     3    1   32 1
     4    1   33 1
     5    2    3 1
     6    2   34 1
     7    2   35 1
     8    3    4 1
     9    3   36 1
    10    3   37 1
    11    4    5 1
    12    4   30 1
    13    4    6 1
    14    6    7 1
    15    6   38 1
    16    6   39 1
    17    7    8 1
    18    7   40 1
    19    7   41 1
    20    8   12 1
    21    8    9 2
    22    9   10 1
    23    9   30 1
    24   10   11 1
    25   11   12 2
    26   11   15 1
    27   12   13 1
    28   13   14 3
    29   15   16 am
    30   15   42 1
    31   16   17 2
    32   16   18 1
    33   18   19 1
    34   18   24 1
    35   18   20 1
    36   20   21 1
    37   20   43 1
    38   20   44 1
    39   21   22 2
    40   21   29 1
    41   22   23 1
    42   22   28 1
    43   23   24 1
    44   23   45 1
    45   23   46 1
    46   24   25 1
    47   24   26 1
    48   26   27 2
    49   26   55 1
    50   28   47 1
    51   28   48 1
    52   28   49 1
    53   29   50 1
    54   29   51 1
    55   29   52 1
    56   30   53 1
    57   30   54 1
@<TRIPOS>MOLECULE
ZINC09634136
   36    38     0     0     0
SMALL
USER_CHARGES
(NZ)-N-(3,5-dichloro-4-methyl-1H-pyridin-2-ylidene)-2-[(4-thioxo-3H-quinazolin-2-yl)sulfanyl]acetamide
@<TRIPOS>ATOM
      1 C1          7.1421   -9.3337   -1.9497 C.3       1 <0>        -0.1315
      2 C2          5.7428   -8.7749   -1.9737 C.ar      1 <0>         0.0229
      3 C3          4.8625   -9.1196   -3.0059 C.ar      1 <0>        -0.1348
      4 C4          3.6036   -8.6146   -3.0231 C.ar      1 <0>         0.1631
      5 N1          3.1800   -7.7780   -2.0436 N.ar      1 <0>        -0.4960
      6 C5          4.0155   -7.4195   -1.0288 C.ar      1 <0>         0.4216
      7 N2          3.5869   -6.5863   -0.0679 N.am      1 <0>        -0.6786
      8 C6          2.3234   -6.1906   -0.0498 C.2       1 <0>         0.5593
      9 O1          1.4279   -7.0145   -0.0338 O.2       1 <0>        -0.4358
     10 C7          1.9943   -4.7199   -0.0492 C.3       1 <0>        -0.1574
     11 S1          0.1974   -4.5038   -0.0225 S.3       1 <0>         0.0570
     12 C8          0.1008   -2.7444   -0.0262 C.ar      1 <0>         0.3141
     13 N3         -1.1333   -2.1600   -0.0096 N.ar      1 <0>        -0.5573
     14 C9         -1.2562   -0.8126   -0.0122 C.ar      1 <0>         0.3662
     15 S2         -2.7949   -0.0623    0.0090 S.3       1 <0>        -0.7263
     16 C10        -0.0224   -0.0172   -0.0333 C.ar      1 <0>        -0.1729
     17 C11        -0.0466    1.3768   -0.0370 C.ar      1 <0>        -0.0346
     18 C12         1.1398    2.0766   -0.0566 C.ar      1 <0>        -0.1679
     19 C13         2.3561    1.4059   -0.0727 C.ar      1 <0>        -0.0849
     20 C14         2.4031    0.0303   -0.0694 C.ar      1 <0>        -0.1342
     21 C15         1.2137   -0.7030   -0.0496 C.ar      1 <0>         0.1773
     22 N4          1.2165   -2.0574   -0.0452 N.ar      1 <0>        -0.5913
     23 C16         5.3215   -7.9269   -0.9867 C.ar      1 <0>        -0.1410
     24 Cl1         6.3935   -7.4830    0.3045 Cl        1 <0>        -0.0426
     25 Cl2         5.3826  -10.1944   -4.2661 Cl        1 <0>        -0.0499
     26 H1          7.2899   -9.9897   -2.8203 H         1 <0>         0.0851
     27 H2          7.2903   -9.9118   -1.0256 H         1 <0>         0.0874
     28 H3          7.8675   -8.5076   -1.9857 H         1 <0>         0.0879
     29 H4          2.9300   -8.8855   -3.8227 H         1 <0>         0.1760
     30 H5          2.4339   -4.2462    0.8410 H         1 <0>         0.1271
     31 H6          2.4065   -4.2515   -0.9551 H         1 <0>         0.1310
     32 H7         -0.9890    1.9043   -0.0290 H         1 <0>         0.1424
     33 H8          1.1241    3.1565   -0.0599 H         1 <0>         0.1197
     34 H9          3.2764    1.9708   -0.0881 H         1 <0>         0.1195
     35 H10         3.3548   -0.4801   -0.0824 H         1 <0>         0.1235
     36 H11         4.2853   -6.2321    0.7047 H         1 <0>         0.4558
@<TRIPOS>BOND
     1    1    2 1
     2    1   26 1
     3    1   27 1
     4    1   28 1
     5    2   23 ar
     6    2    3 ar
     7    3    4 ar
     8    3   25 1
     9    4    5 ar
    10    4   29 1
    11    5    6 ar
    12    6    7 1
    13    6   23 ar
    14    7    8 am
    15    7   36 1
    16    8    9 2
    17    8   10 1
    18   10   11 1
    19   10   30 1
    20   10   31 1
    21   11   12 1
    22   12   22 ar
    23   12   13 ar
    24   13   14 ar
    25   14   15 1
    26   14   16 ar
    27   16   21 ar
    28   16   17 ar
    29   17   18 ar
    30   17   32 1
    31   18   19 ar
    32   18   33 1
    33   19   20 ar
    34   19   34 1
    35   20   21 ar
    36   20   35 1
    37   21   22 ar
    38   23   24 1
@<TRIPOS>MOLECULE
ZINC08559576
   37    39     0     0     0
SMALL
USER_CHARGES

@<TRIPOS>ATOM
      1 C1         -1.0680    1.0605    0.0198 C.3       1 <0>        -0.1105
      2 C2         -0.2588   -0.2108    0.0266 C.ar      1 <0>        -0.1345
      3 C3         -0.0237   -0.8871   -1.1546 C.ar      1 <0>        -0.1023
      4 C4          0.7190   -2.0533   -1.1493 C.ar      1 <0>        -0.1536
      5 C5          1.2286   -2.5469    0.0379 C.ar      1 <0>        -0.1036
      6 C6          0.9973   -1.8757    1.2223 C.ar      1 <0>        -0.1163
      7 C7          0.2563   -0.7006    1.2197 C.ar      1 <0>         0.1898
      8 N1          0.0251   -0.0155    2.4163 N.pl3     1 <0>        -0.6426
      9 C8         -0.0587   -0.7143    3.6095 C.ar      1 <0>         0.5148
     10 N2         -0.1620   -0.0491    4.7533 N.ar      1 <0>        -0.6279
     11 C9         -0.2419   -0.7242    5.8946 C.ar      1 <0>         0.4456
     12 O1         -0.3486   -0.0718    7.0776 O.3       1 <0>        -0.6720
     13 C10        -0.2144   -2.1192    5.8509 C.ar      1 <0>        -0.0967
     14 N3         -0.1102   -2.7248    4.6832 N.ar      1 <0>        -0.1577
     15 N4         -0.0401   -2.0408    3.5952 N.ar      1 <0>        -0.4171
     16 C11        -0.3021   -2.9239    7.1220 C.3       1 <0>         0.0045
     17 C12        -1.7474   -3.2165    7.4326 C.ar      1 <0>        -0.0530
     18 C13        -2.4511   -2.3913    8.2898 C.ar      1 <0>        -0.0888
     19 C14        -3.7768   -2.6595    8.5748 C.ar      1 <0>        -0.1240
     20 C15        -4.3998   -3.7533    8.0027 C.ar      1 <0>        -0.1217
     21 C16        -3.6973   -4.5789    7.1456 C.ar      1 <0>        -0.1221
     22 C17        -2.3718   -4.3076    6.8555 C.ar      1 <0>        -0.0291
     23 Cl1        -1.4907   -5.3406    5.7738 Cl        1 <0>        -0.0573
     24 H1         -0.4047    1.9126   -0.1284 H         1 <0>         0.0647
     25 H2         -1.7973    1.0227   -0.7894 H         1 <0>         0.0647
     26 H3         -1.5874    1.1657    0.9723 H         1 <0>         0.0632
     27 H4         -0.4208   -0.5047   -2.0833 H         1 <0>         0.1167
     28 H5          0.9014   -2.5801   -2.0743 H         1 <0>         0.1139
     29 H6          1.8077   -3.4585    0.0387 H         1 <0>         0.1180
     30 H7          1.3955   -2.2617    2.1491 H         1 <0>         0.1439
     31 H8         -0.0767    0.9491    2.4110 H         1 <0>         0.4126
     32 H9          0.2396   -3.8614    6.9967 H         1 <0>         0.0791
     33 H10         0.1381   -2.3567    7.9422 H         1 <0>         0.0884
     34 H11        -1.9649   -1.5370    8.7372 H         1 <0>         0.1386
     35 H12        -4.3260   -2.0147    9.2448 H         1 <0>         0.1227
     36 H13        -5.4355   -3.9626    8.2260 H         1 <0>         0.1234
     37 H14        -4.1840   -5.4334    6.6991 H         1 <0>         0.1261
@<TRIPOS>BOND
     1    1    2 1
     2    1   24 1
     3    1   25 1
     4    1   26 1
     5    2    7 ar
     6    2    3 ar
     7    3    4 ar
     8    3   27 1
     9    4    5 ar
    10    4   28 1
    11    5    6 ar
    12    5   29 1
    13    6    7 ar
    14    6   30 1
    15    7    8 1
    16    8    9 1
    17    8   31 1
    18    9   15 ar
    19    9   10 ar
    20   10   11 ar
    21   11   12 1
    22   11   13 ar
    23   13   14 ar
    24   13   16 1
    25   14   15 ar
    26   16   17 1
    27   16   32 1
    28   16   33 1
    29   17   22 ar
    30   17   18 ar
    31   18   19 ar
    32   18   34 1
    33   19   20 ar
    34   19   35 1
    35   20   21 ar
    36   20   36 1
    37   21   22 ar
    38   21   37 1
    39   22   23 1
@<TRIPOS>MOLECULE
ZINC50917032
   35    36     0     0     0
SMALL
USER_CHARGES

@<TRIPOS>ATOM
      1 C1          1.1794   -0.4519    1.1812 C.ar      1 <0>        -0.0969
      2 C2          2.2986    0.1914    0.6932 C.ar      1 <0>        -0.1018
      3 C3          2.5150    1.5373    0.9923 C.ar      1 <0>        -0.0910
      4 C4          1.5969    2.2270    1.7846 C.ar      1 <0>        -0.1008
      5 C5          0.4774    1.5721    2.2690 C.ar      1 <0>         0.0907
      6 C6          0.2705    0.2328    1.9663 C.ar      1 <0>        -0.1856
      7 O1         -0.4191    2.2402    3.0416 O.3       1 <0>        -0.3175
      8 C7         -1.5511    1.5026    3.5071 C.3       1 <0>         0.4107
      9 F1         -2.2798    1.0264    2.4120 F         1 <0>        -0.2008
     10 F2         -1.1169    0.4228    4.2835 F         1 <0>        -0.2014
     11 C8          3.7140    2.2301    0.4712 C.2       1 <0>         0.4563
     12 C9          3.6798    3.6288    0.2385 C.2       1 <0>        -0.4346
     13 C10         2.4453    4.3445    0.3579 C.1       1 <0>         0.2941
     14 N1          1.4659    4.9123    0.4526 N.1       1 <0>        -0.5239
     15 C11         4.8495    4.3076   -0.1070 C.2       1 <0>         0.5476
     16 O2          6.0103    3.6346   -0.2193 O.3       1 <0>        -0.6112
     17 N2          4.8166    5.6503   -0.3305 N.pl3     1 <0>        -0.6675
     18 C12         6.0070    6.3525   -0.5490 C.ar      1 <0>         0.2016
     19 C13         7.1938    5.9023    0.0145 C.ar      1 <0>        -0.1024
     20 C14         8.3673    6.5972   -0.2026 C.ar      1 <0>        -0.0838
     21 C15         8.3620    7.7419   -0.9806 C.ar      1 <0>        -0.0609
     22 C16         7.1815    8.1934   -1.5437 C.ar      1 <0>        -0.0821
     23 C17         6.0050    7.4986   -1.3350 C.ar      1 <0>        -0.0785
     24 Cl1         4.5253    8.0613   -2.0474 Cl        1 <0>        -0.0641
     25 Cl2         9.8392    8.6131   -1.2501 Cl        1 <0>        -0.0772
     26 O3          4.7304    1.5994    0.2423 O.2       1 <0>        -0.4826
     27 H1          1.0108   -1.4923    0.9453 H         1 <0>         0.1276
     28 H2          3.0069   -0.3465    0.0805 H         1 <0>         0.1340
     29 H3          1.7592    3.2685    2.0197 H         1 <0>         0.1419
     30 H4         -0.6037   -0.2757    2.3451 H         1 <0>         0.1288
     31 H5         -2.1850    2.1524    4.1105 H         1 <0>         0.1783
     32 H6          3.9680    6.1200   -0.3382 H         1 <0>         0.4065
     33 H7          7.1989    5.0097    0.6224 H         1 <0>         0.1695
     34 H8          9.2903    6.2472    0.2356 H         1 <0>         0.1378
     35 H9          7.1802    9.0869   -2.1504 H         1 <0>         0.1395
@<TRIPOS>BOND
     1    1    6 ar
     2    1    2 ar
     3    1   27 1
     4    2    3 ar
     5    2   28 1
     6    3    4 ar
     7    3   11 1
     8    4    5 ar
     9    4   29 1
    10    5    6 ar
    11    5    7 1
    12    6   30 1
    13    7    8 1
    14    8    9 1
    15    8   10 1
    16    8   31 1
    17   11   12 1
    18   11   26 2
    19   12   13 1
    20   12   15 2
    21   13   14 3
    22   15   16 1
    23   15   17 1
    24   17   18 1
    25   17   32 1
    26   18   23 ar
    27   18   19 ar
    28   19   20 ar
    29   19   33 1
    30   20   21 ar
    31   20   34 1
    32   21   22 ar
    33   21   25 1
    34   22   23 ar
    35   22   35 1
    36   23   24 1
@<TRIPOS>MOLECULE
ZINC13787541
   40    42     0     0     0
SMALL
USER_CHARGES

@<TRIPOS>ATOM
      1 C1         -0.3034    1.4001    0.4605 C.3       1 <0>         0.0249
      2 O1         -0.2934   -0.0263    0.3761 O.3       1 <0>        -0.3116
      3 C2         -1.2962   -0.6098   -0.3331 C.ar      1 <0>         0.0969
      4 C3         -2.2662    0.1796   -0.9394 C.ar      1 <0>        -0.1402
      5 C4         -3.2896   -0.4025   -1.6623 C.ar      1 <0>        -0.1714
      6 C5         -3.3566   -1.7802   -1.7888 C.ar      1 <0>         0.1343
      7 C6         -2.3804   -2.5850   -1.1797 C.ar      1 <0>        -0.0883
      8 C7         -1.3446   -1.9858   -0.4534 C.ar      1 <0>        -0.0909
      9 C8         -2.4429   -4.0460   -1.3081 C.2       1 <0>         0.0897
     10 C9         -1.3358   -4.7960   -1.0736 C.2       1 <0>        -0.2249
     11 C10        -1.2076   -6.2597   -0.9422 C.2       1 <0>         0.5641
     12 O2         -2.1729   -6.9944   -1.0416 O.2       1 <0>        -0.4785
     13 N1          0.0037   -6.7375   -0.7119 N.am      1 <0>        -0.6479
     14 C11         1.0843   -5.8890   -0.6030 C.2       1 <0>         0.4007
     15 N2          2.3426   -6.1934   -0.3789 N.2       1 <0>        -0.4631
     16 C12         3.2721   -5.1988   -0.2340 C.ar      1 <0>         0.1174
     17 C13         3.0406   -4.1467    0.6546 C.ar      1 <0>        -0.1217
     18 C14         3.9811   -3.1475    0.7961 C.ar      1 <0>        -0.0817
     19 C15         5.1531   -3.1857    0.0595 C.ar      1 <0>        -0.0305
     20 C16         5.3895   -4.2256   -0.8235 C.ar      1 <0>        -0.0874
     21 C17         4.4593   -5.2349   -0.9704 C.ar      1 <0>        -0.0155
     22 Cl1         4.7602   -6.5421   -2.0724 Cl        1 <0>        -0.0376
     23 Cl2         6.3309   -1.9237    0.2435 Cl        1 <0>        -0.0516
     24 S1          0.3590   -4.2762   -0.8487 S.3       1 <0>        -0.0124
     25 O3         -4.3635   -2.3509   -2.4993 O.3       1 <0>        -0.3093
     26 C18        -5.3207   -1.4697   -3.0905 C.3       1 <0>         0.0243
     27 H1          0.5484    1.7351    1.0525 H         1 <0>         0.1041
     28 H2         -0.2384    1.8239   -0.5417 H         1 <0>         0.0567
     29 H3         -1.2277    1.7295    0.9350 H         1 <0>         0.0565
     30 H4         -2.2198    1.2544   -0.8446 H         1 <0>         0.1387
     31 H5         -4.0397    0.2183   -2.1296 H         1 <0>         0.1407
     32 H6         -0.5876   -2.5973    0.0151 H         1 <0>         0.1518
     33 H7         -3.3695   -4.5242   -1.5892 H         1 <0>         0.1676
     34 H8          0.1329   -7.6943   -0.6184 H         1 <0>         0.4257
     35 H9          2.1270   -4.1151    1.2296 H         1 <0>         0.1465
     36 H10         3.8027   -2.3332    1.4828 H         1 <0>         0.1472
     37 H11         6.3056   -4.2496   -1.3950 H         1 <0>         0.1512
     38 H12        -6.0685   -2.0532   -3.6277 H         1 <0>         0.1062
     39 H13        -5.8077   -0.8856   -2.3097 H         1 <0>         0.0595
     40 H14        -4.8160   -0.7983   -3.7852 H         1 <0>         0.0593
@<TRIPOS>BOND
     1    1    2 1
     2    1   27 1
     3    1   28 1
     4    1   29 1
     5    2    3 1
     6    3    8 ar
     7    3    4 ar
     8    4    5 ar
     9    4   30 1
    10    5    6 ar
    11    5   31 1
    12    6    7 ar
    13    6   25 1
    14    7    8 ar
    15    7    9 1
    16    8   32 1
    17    9   10 2
    18    9   33 1
    19   10   24 1
    20   10   11 1
    21   11   12 2
    22   11   13 am
    23   13   14 1
    24   13   34 1
    25   14   15 2
    26   14   24 1
    27   15   16 1
    28   16   21 ar
    29   16   17 ar
    30   17   18 ar
    31   17   35 1
    32   18   19 ar
    33   18   36 1
    34   19   20 ar
    35   19   23 1
    36   20   21 ar
    37   20   37 1
    38   21   22 1
    39   25   26 1
    40   26   38 1
    41   26   39 1
    42   26   40 1
@<TRIPOS>MOLECULE
ZINC13519939
   27    28     0     0     0
SMALL
USER_CHARGES

@<TRIPOS>ATOM
      1 C1          0.6295    0.8032    0.4570 C.ar      1 <0>        -0.1232
      2 C2          1.9249    1.0170    0.8807 C.ar      1 <0>        -0.1274
      3 C3          2.7113   -0.0515    1.2799 C.ar      1 <0>         0.0401
      4 C4          2.2024   -1.3398    1.2566 C.ar      1 <0>        -0.1253
      5 C5          0.9083   -1.5657    0.8352 C.ar      1 <0>        -0.1612
      6 C6          0.1113   -0.4929    0.4314 C.ar      1 <0>         0.1513
      7 N1         -1.1746   -0.7112    0.0120 N.2       1 <0>        -0.6010
      8 C7         -1.4079   -1.5163   -0.9994 C.2       1 <0>         0.5631
      9 N2         -0.3588   -2.0359   -1.7207 N.pl3     1 <0>        -0.6938
     10 C8         -0.5992   -2.9841   -2.7207 C.ar      1 <0>         0.1996
     11 C9         -1.4689   -4.0403   -2.4836 C.ar      1 <0>        -0.0579
     12 C10        -1.7047   -4.9752   -3.4740 C.ar      1 <0>        -0.0228
     13 C11        -1.0744   -4.8597   -4.7009 C.ar      1 <0>        -0.1208
     14 C12        -0.2076   -3.8095   -4.9399 C.ar      1 <0>        -0.0970
     15 C13         0.0276   -2.8679   -3.9557 C.ar      1 <0>        -0.0629
     16 Cl1         1.1108   -1.5457   -4.2594 Cl        1 <0>        -0.0720
     17 Cl2        -2.7918   -6.2960   -3.1785 Cl        1 <0>        -0.0724
     18 S1         -3.0650   -1.9304   -1.4318 S.3       1 <0>        -0.7947
     19 F1          3.9794    0.1637    1.6931 F         1 <0>        -0.1526
     20 H1          0.0160    1.6373    0.1500 H         1 <0>         0.1286
     21 H2          2.3268    2.0192    0.9010 H         1 <0>         0.1273
     22 H3          2.8201   -2.1690    1.5686 H         1 <0>         0.1256
     23 H4          0.5126   -2.5704    0.8175 H         1 <0>         0.1231
     24 H5         -1.9604   -4.1313   -1.5262 H         1 <0>         0.1575
     25 H6         -1.2600   -5.5917   -5.4730 H         1 <0>         0.1347
     26 H7          0.2829   -3.7224   -5.8981 H         1 <0>         0.1368
     27 H8          0.5480   -1.7450   -1.5360 H         1 <0>         0.3973
@<TRIPOS>BOND
     1    1    6 ar
     2    1    2 ar
     3    1   20 1
     4    2    3 ar
     5    2   21 1
     6    3    4 ar
     7    3   19 1
     8    4    5 ar
     9    4   22 1
    10    5    6 ar
    11    5   23 1
    12    6    7 1
    13    7    8 2
    14    8    9 1
    15    8   18 1
    16    9   10 1
    17    9   27 1
    18   10   15 ar
    19   10   11 ar
    20   11   12 ar
    21   11   24 1
    22   12   13 ar
    23   12   17 1
    24   13   14 ar
    25   13   25 1
    26   14   15 ar
    27   14   26 1
    28   15   16 1
@<TRIPOS>MOLECULE
ZINC09353626
   43    46     0     0     0
SMALL
USER_CHARGES
(5S)-4-benzoyl-5-(2-chlorophenyl)-1-(4-fluorophenyl)-3-hydroxy-5H-pyrrol-2-one
@<TRIPOS>ATOM
      1 C1         -3.1578   -0.8249    4.9541 C.ar      1 <0>        -0.1049
      2 C2         -4.1443   -0.2791    4.1514 C.ar      1 <0>        -0.1427
      3 C3         -3.8017    0.4880    3.0575 C.ar      1 <0>        -0.0743
      4 C4         -2.4558    0.7134    2.7608 C.ar      1 <0>        -0.1364
      5 C5         -1.4655    0.1552    3.5719 C.ar      1 <0>        -0.0493
      6 C6         -1.8222   -0.6055    4.6657 C.ar      1 <0>        -0.1407
      7 C7         -2.0810    1.5343    1.5894 C.2       1 <0>         0.5184
      8 O1         -2.9436    2.0844    0.9310 O.2       1 <0>        -0.4725
      9 C8         -0.6705    1.6853    1.2216 C.2       1 <0>        -0.4897
     10 C9          0.2440    2.4744    1.8340 C.2       1 <0>         0.2586
     11 C10         1.5449    2.3315    1.1483 C.2       1 <0>         0.5113
     12 O2          2.5658    2.9112    1.4620 O.2       1 <0>        -0.5073
     13 N1          1.4326    1.4645    0.1257 N.am      1 <0>        -0.5525
     14 C11         0.0443    0.9902    0.0864 C.3       1 <0>         0.2604
     15 H1          0.0174   -0.1048    0.1874 H         1 <0>         0.0861
     16 C12        -0.5915    1.3569   -1.2298 C.ar      1 <0>        -0.0644
     17 C13        -0.1408    2.4590   -1.9320 C.ar      1 <0>        -0.0881
     18 C14        -0.7206    2.7927   -3.1415 C.ar      1 <0>        -0.1132
     19 C15        -1.7587    2.0305   -3.6447 C.ar      1 <0>        -0.1160
     20 C16        -2.2136    0.9316   -2.9412 C.ar      1 <0>        -0.1097
     21 C17        -1.6300    0.5940   -1.7328 C.ar      1 <0>        -0.0218
     22 Cl1        -2.2005   -0.7868   -0.8486 Cl        1 <0>        -0.0700
     23 C18         2.4574    1.0832   -0.7461 C.ar      1 <0>         0.1845
     24 C19         2.2029    0.1701   -1.7615 C.ar      1 <0>        -0.1320
     25 C20         3.2152   -0.2013   -2.6243 C.ar      1 <0>        -0.1208
     26 C21         4.4858    0.3282   -2.4715 C.ar      1 <0>         0.0549
     27 C22         4.7430    1.2347   -1.4566 C.ar      1 <0>        -0.1206
     28 C23         3.7326    1.6126   -0.5945 C.ar      1 <0>        -0.1356
     29 F1          5.4759   -0.0405   -3.3135 F         1 <0>        -0.1473
     30 O3          0.0045    3.2674    2.9034 O.3       1 <0>        -0.6480
     31 H2         -3.4316   -1.4251    5.8092 H         1 <0>         0.1177
     32 H3         -5.1847   -0.4539    4.3823 H         1 <0>         0.1196
     33 H4         -4.5725    0.9137    2.4322 H         1 <0>         0.1266
     34 H5         -0.4228    0.3223    3.3456 H         1 <0>         0.1318
     35 H6         -1.0574   -1.0341    5.2964 H         1 <0>         0.1211
     36 H7          0.6670    3.0573   -1.5372 H         1 <0>         0.1224
     37 H8         -0.3657    3.6517   -3.6915 H         1 <0>         0.1238
     38 H9         -2.2139    2.2939   -4.5881 H         1 <0>         0.1264
     39 H10        -3.0247    0.3365   -3.3342 H         1 <0>         0.1290
     40 H11         1.2133   -0.2462   -1.8785 H         1 <0>         0.1329
     41 H12         3.0170   -0.9083   -3.4163 H         1 <0>         0.1347
     42 H13         5.7346    1.6461   -1.3391 H         1 <0>         0.1356
     43 H14         3.9338    2.3190    0.1973 H         1 <0>         0.1619
@<TRIPOS>BOND
     1    1    6 ar
     2    1    2 ar
     3    1   31 1
     4    2    3 ar
     5    2   32 1
     6    3    4 ar
     7    3   33 1
     8    4    5 ar
     9    4    7 1
    10    5    6 ar
    11    5   34 1
    12    6   35 1
    13    7    8 2
    14    7    9 1
    15    9   14 1
    16    9   10 2
    17   10   11 1
    18   10   30 1
    19   11   12 2
    20   11   13 am
    21   13   14 1
    22   13   23 1
    23   14   15 1
    24   14   16 1
    25   16   21 ar
    26   16   17 ar
    27   17   18 ar
    28   17   36 1
    29   18   19 ar
    30   18   37 1
    31   19   20 ar
    32   19   38 1
    33   20   21 ar
    34   20   39 1
    35   21   22 1
    36   23   28 ar
    37   23   24 ar
    38   24   25 ar
    39   24   40 1
    40   25   26 ar
    41   25   41 1
    42   26   27 ar
    43   26   29 1
    44   27   28 ar
    45   27   42 1
    46   28   43 1
@<TRIPOS>MOLECULE
ZINC27525830
   38    40     0     0     0
SMALL
USER_CHARGES
4-[[4-[(4-chlorophenyl)methoxy]phenyl]methyleneamino]-5-(trifluoromethyl)-1,2,4-triazole-3-thiol
@<TRIPOS>ATOM
      1 C1          0.0021   -0.0041    0.0020 C.ar      1 <0>        -0.0815
      2 C2         -0.0167    1.3779    0.0096 C.ar      1 <0>        -0.1140
      3 C3          1.1721    2.0857    0.0021 C.ar      1 <0>        -0.0260
      4 C4          2.3790    1.4094   -0.0126 C.ar      1 <0>        -0.1136
      5 C5          2.3965    0.0274   -0.0207 C.ar      1 <0>        -0.0810
      6 C6          1.2083   -0.6792   -0.0131 C.ar      1 <0>        -0.0896
      7 C7          1.2281   -2.1860   -0.0209 C.3       1 <0>         0.0950
      8 O1          1.2212   -2.6555   -1.3706 O.3       1 <0>        -0.3063
      9 C8          1.2371   -4.0010   -1.5555 C.ar      1 <0>         0.1500
     10 C9          1.2647   -4.8507   -0.4568 C.ar      1 <0>        -0.2169
     11 C10         1.2760   -6.2163   -0.6395 C.ar      1 <0>        -0.0209
     12 C11         1.2700   -6.7462   -1.9327 C.ar      1 <0>        -0.1006
     13 C12         1.2476   -5.8875   -3.0351 C.ar      1 <0>        -0.0364
     14 C13         1.2315   -4.5232   -2.8427 C.ar      1 <0>        -0.1575
     15 C14         1.2868   -8.2064   -2.1334 C.2       1 <0>         0.1899
     16 N1          1.3076   -9.0020   -1.1083 N.2       1 <0>        -0.2406
     17 N2          1.3236  -10.3899   -1.2990 N.pl3     1 <0>        -0.3455
     18 C15         0.2419  -11.2247   -1.3950 C.2       1 <0>         0.0169
     19 N3          0.6992  -12.4329   -1.5715 N.2       1 <0>        -0.2199
     20 N4          1.9841  -12.4224   -1.5853 N.2       1 <0>        -0.3208
     21 C16         2.4234  -11.1953   -1.4224 C.2       1 <0>         0.3946
     22 S1          4.1085  -10.6832   -1.3722 S.3       1 <0>        -0.7622
     23 C17        -1.2078  -10.8212   -1.3144 C.3       1 <0>         0.5751
     24 F1         -1.9978  -11.9580   -1.1123 F         1 <0>        -0.1560
     25 F2         -1.3863   -9.9337   -0.2478 F         1 <0>        -0.1678
     26 F3         -1.5853  -10.1973   -2.5083 F         1 <0>        -0.1754
     27 Cl1         1.1494    3.8215    0.0110 Cl        1 <0>        -0.0685
     28 H1         -0.9258   -0.5566    0.0083 H         1 <0>         0.1358
     29 H2         -0.9591    1.9053    0.0169 H         1 <0>         0.1367
     30 H3          3.3073    1.9614   -0.0178 H         1 <0>         0.1370
     31 H4          3.3386   -0.5006   -0.0325 H         1 <0>         0.1365
     32 H5          2.1360   -2.5434    0.4870 H         1 <0>         0.0790
     33 H6          0.3400   -2.5671    0.5044 H         1 <0>         0.0782
     34 H7          1.2731   -4.4403    0.5421 H         1 <0>         0.1332
     35 H8          1.2933   -6.8762    0.2152 H         1 <0>         0.1410
     36 H9          1.2433   -6.2926   -4.0362 H         1 <0>         0.1391
     37 H10         1.2142   -3.8589   -3.6940 H         1 <0>         0.1370
     38 H11         1.2817   -8.6217   -3.1520 H         1 <0>         0.1261
@<TRIPOS>BOND
     1    1    6 ar
     2    1    2 ar
     3    1   28 1
     4    2    3 ar
     5    2   29 1
     6    3    4 ar
     7    3   27 1
     8    4    5 ar
     9    4   30 1
    10    5    6 ar
    11    5   31 1
    12    6    7 1
    13    7    8 1
    14    7   32 1
    15    7   33 1
    16    8    9 1
    17    9   14 ar
    18    9   10 ar
    19   10   11 ar
    20   10   34 1
    21   11   12 ar
    22   11   35 1
    23   12   13 ar
    24   12   15 1
    25   13   14 ar
    26   13   36 1
    27   14   37 1
    28   15   16 2
    29   15   38 1
    30   16   17 1
    31   17   21 1
    32   17   18 1
    33   18   19 2
    34   18   23 1
    35   19   20 1
    36   20   21 2
    37   21   22 1
    38   23   24 1
    39   23   25 1
    40   23   26 1
@<TRIPOS>MOLECULE
ZINC04170209
   47    49     0     0     0
SMALL
USER_CHARGES

@<TRIPOS>ATOM
      1 C1         -0.9998    1.7138    1.0113 C.3       1 <0>        -0.1460
      2 C2         -0.8338    0.2280    0.6861 C.3       1 <0>        -0.0943
      3 C3          0.3051   -0.3538    1.5259 C.3       1 <0>        -0.1520
      4 C4         -2.1337   -0.5126    1.0068 C.3       1 <0>        -0.1148
      5 C5         -2.0109   -1.9726    0.5663 C.3       1 <0>         0.0603
      6 O1         -3.2249   -2.6643    0.8658 O.3       1 <0>        -0.3167
      7 C6         -3.2822   -3.9797    0.5360 C.ar      1 <0>         0.1567
      8 C7         -2.1856   -4.5926   -0.0601 C.ar      1 <0>        -0.2300
      9 C8         -2.2379   -5.9259   -0.3968 C.ar      1 <0>        -0.0518
     10 C9         -3.3992   -6.6661   -0.1377 C.ar      1 <0>        -0.0929
     11 C10        -4.5012   -6.0430    0.4633 C.ar      1 <0>         0.0360
     12 C11        -4.4353   -4.7105    0.8007 C.ar      1 <0>        -0.1535
     13 C12        -3.4613   -8.0871   -0.4945 C.2       1 <0>         0.0277
     14 C13        -4.5858   -8.5961   -1.0741 C.2       1 <0>        -0.0233
     15 C14        -4.7621  -10.0138   -1.1715 C.1       1 <0>         0.2842
     16 N1         -4.9021  -11.1385   -1.2487 N.1       1 <0>        -0.4392
     17 C15        -5.6229   -7.6841   -1.6019 C.ar      1 <0>         0.4009
     18 N2         -6.7797   -8.1947   -1.9871 N.ar      1 <0>        -0.6027
     19 C16        -7.7429   -7.3998   -2.4699 C.ar      1 <0>         0.1914
     20 C17        -8.9824   -7.9066   -2.8874 C.ar      1 <0>        -0.1415
     21 C18        -9.9295   -7.0541   -3.3712 C.ar      1 <0>        -0.0850
     22 C19        -9.6863   -5.6860   -3.4584 C.ar      1 <0>        -0.1899
     23 C20        -8.4923   -5.1595   -3.0614 C.ar      1 <0>        -0.0286
     24 C21        -7.4979   -6.0064   -2.5593 C.ar      1 <0>        -0.2317
     25 C22        -6.2406   -5.5160   -2.1320 C.ar      1 <0>         0.4703
     26 O2         -5.9542   -4.1953   -2.1950 O.3       1 <0>        -0.6559
     27 N3         -5.3553   -6.3793   -1.6651 N.ar      1 <0>        -0.6122
     28 H1         -0.0737    2.2413    0.7828 H         1 <0>         0.0547
     29 H2         -1.8112    2.1282    0.4131 H         1 <0>         0.0561
     30 H3         -1.2326    1.8302    2.0698 H         1 <0>         0.0550
     31 H4         -0.6010    0.1115   -0.3723 H         1 <0>         0.0727
     32 H5          0.0723   -0.2374    2.5844 H         1 <0>         0.0558
     33 H6          0.4233   -1.4123    1.2942 H         1 <0>         0.0571
     34 H7          1.2312    0.1738    1.2974 H         1 <0>         0.0541
     35 H8         -2.3201   -0.4714    2.0800 H         1 <0>         0.0716
     36 H9         -2.9608   -0.0413    0.4760 H         1 <0>         0.0740
     37 H10        -1.8245   -2.0139   -0.5069 H         1 <0>         0.0596
     38 H11        -1.1837   -2.4440    1.0970 H         1 <0>         0.0598
     39 H12        -1.2912   -4.0211   -0.2597 H         1 <0>         0.1169
     40 H13        -1.3857   -6.4008   -0.8600 H         1 <0>         0.1176
     41 H14        -5.3989   -6.6085    0.6653 H         1 <0>         0.1118
     42 H15        -5.2822   -4.2303    1.2682 H         1 <0>         0.1175
     43 H16        -2.6164   -8.7306   -0.2982 H         1 <0>         0.1356
     44 H17        -9.1850   -8.9656   -2.8262 H         1 <0>         0.1194
     45 H18       -10.8833   -7.4460   -3.6921 H         1 <0>         0.1128
     46 H19       -10.4537   -5.0324   -3.8463 H         1 <0>         0.1104
     47 H20        -8.3155   -4.0966   -3.1343 H         1 <0>         0.1220
@<TRIPOS>BOND
     1    1    2 1
     2    1   28 1
     3    1   29 1
     4    1   30 1
     5    2    3 1
     6    2    4 1
     7    2   31 1
     8    3   32 1
     9    3   33 1
    10    3   34 1
    11    4    5 1
    12    4   35 1
    13    4   36 1
    14    5    6 1
    15    5   37 1
    16    5   38 1
    17    6    7 1
    18    7   12 ar
    19    7    8 ar
    20    8    9 ar
    21    8   39 1
    22    9   10 ar
    23    9   40 1
    24   10   11 ar
    25   10   13 1
    26   11   12 ar
    27   11   41 1
    28   12   42 1
    29   13   14 2
    30   13   43 1
    31   14   15 1
    32   14   17 1
    33   15   16 3
    34   17   27 ar
    35   17   18 ar
    36   18   19 ar
    37   19   24 ar
    38   19   20 ar
    39   20   21 ar
    40   20   44 1
    41   21   22 ar
    42   21   45 1
    43   22   23 ar
    44   22   46 1
    45   23   24 ar
    46   23   47 1
    47   24   25 ar
    48   25   26 1
    49   25   27 ar
@<TRIPOS>MOLECULE
ZINC27490133
   39    41     0     0     0
SMALL
USER_CHARGES

@<TRIPOS>ATOM
      1 C1          1.1389    2.9708    1.2246 C.ar      1 <0>        -0.0776
      2 C2          2.4464    3.3775    1.4141 C.ar      1 <0>        -0.1453
      3 C3          3.4840    2.4880    1.2064 C.ar      1 <0>        -0.0221
      4 C4          3.2140    1.1916    0.8095 C.ar      1 <0>        -0.6246
      5 C5          1.9065    0.7847    0.6209 C.ar      1 <0>        -0.0231
      6 C6          0.8690    1.6746    0.8272 C.ar      1 <0>        -0.1443
      7 S1          4.5366    0.0581    0.5436 S.o2      1 <0>         2.6100
      8 O1          4.0483   -0.9333   -0.3496 O.2       1 <0>        -1.0046
      9 O2          5.6894    0.8387    0.2590 O.2       1 <0>        -1.0077
     10 N1          4.8252   -0.7043    1.9850 N.2       1 <0>        -1.0372
     11 C7          5.6854   -1.6810    2.0445 C.2       1 <0>         0.5075
     12 C8          6.5221   -2.0031    0.8666 C.ar      1 <0>        -0.1153
     13 C9          7.3377   -1.0243    0.2986 C.ar      1 <0>        -0.0809
     14 C10         8.1153   -1.3300   -0.7990 C.ar      1 <0>        -0.1179
     15 C11         8.0870   -2.6056   -1.3372 C.ar      1 <0>        -0.0222
     16 C12         7.2789   -3.5809   -0.7776 C.ar      1 <0>        -0.1256
     17 C13         6.5022   -3.2881    0.3242 C.ar      1 <0>        -0.0423
     18 Cl1         9.0678   -2.9832   -2.7190 Cl        1 <0>        -0.0826
     19 N2          5.8165   -2.4146    3.2047 N.2       1 <0>        -0.6341
     20 C14         4.7284   -2.5504    4.0729 C.ar      1 <0>         0.2055
     21 C15         3.4439   -2.2644    3.6286 C.ar      1 <0>        -0.1639
     22 C16         2.3712   -2.3998    4.4878 C.ar      1 <0>        -0.0904
     23 C17         2.5753   -2.8200    5.7905 C.ar      1 <0>        -0.1043
     24 C18         3.8540   -3.1057    6.2358 C.ar      1 <0>        -0.0885
     25 C19         4.9297   -2.9771    5.3792 C.ar      1 <0>        -0.1577
     26 Cl2         1.2247   -2.9885    6.8681 Cl        1 <0>        -0.1140
     27 H1          0.3281    3.6644    1.3912 H         1 <0>         0.1255
     28 H2          2.6574    4.3903    1.7242 H         1 <0>         0.1279
     29 H3          4.5055    2.8059    1.3538 H         1 <0>         0.1369
     30 H4          1.6955   -0.2280    0.3104 H         1 <0>         0.1361
     31 H5         -0.1525    1.3567    0.6795 H         1 <0>         0.1282
     32 H6          7.3600   -0.0290    0.7171 H         1 <0>         0.1652
     33 H7          8.7471   -0.5729   -1.2396 H         1 <0>         0.1344
     34 H8          7.2603   -4.5741   -1.2015 H         1 <0>         0.1344
     35 H9          5.8762   -4.0509    0.7630 H         1 <0>         0.1369
     36 H10         3.2842   -1.9360    2.6122 H         1 <0>         0.1328
     37 H11         1.3723   -2.1771    4.1430 H         1 <0>         0.1109
     38 H12         4.0104   -3.4334    7.2529 H         1 <0>         0.1152
     39 H13         5.9269   -3.2044    5.7260 H         1 <0>         0.1187
@<TRIPOS>BOND
     1    1    6 ar
     2    1    2 ar
     3    1   27 1
     4    2    3 ar
     5    2   28 1
     6    3    4 ar
     7    3   29 1
     8    4    5 ar
     9    4    7 1
    10    5    6 ar
    11    5   30 1
    12    6   31 1
    13    7    8 2
    14    7    9 2
    15    7   10 1
    16   10   11 2
    17   11   12 1
    18   11   19 1
    19   12   17 ar
    20   12   13 ar
    21   13   14 ar
    22   13   32 1
    23   14   15 ar
    24   14   33 1
    25   15   16 ar
    26   15   18 1
    27   16   17 ar
    28   16   34 1
    29   17   35 1
    30   19   20 1
    31   20   25 ar
    32   20   21 ar
    33   21   22 ar
    34   21   36 1
    35   22   23 ar
    36   22   37 1
    37   23   24 ar
    38   23   26 1
    39   24   25 ar
    40   24   38 1
    41   25   39 1
@<TRIPOS>MOLECULE
ZINC16692821
   40    42     0     0     0
SMALL
USER_CHARGES

@<TRIPOS>ATOM
      1 C1          0.2111    1.0970    2.3896 C.3       1 <0>         0.0249
      2 O1          0.2063   -0.3111    2.1463 O.3       1 <0>        -0.3111
      3 C2         -0.9967   -0.8881    1.8837 C.ar      1 <0>         0.0990
      4 C3         -2.1473   -0.1091    1.8559 C.ar      1 <0>        -0.1407
      5 C4         -3.3749   -0.6847    1.5901 C.ar      1 <0>        -0.1704
      6 C5         -3.4682   -2.0454    1.3485 C.ar      1 <0>         0.1337
      7 C6         -2.3104   -2.8395    1.3742 C.ar      1 <0>        -0.0875
      8 C7         -1.0706   -2.2465    1.6397 C.ar      1 <0>        -0.0931
      9 C8         -2.3991   -4.2824    1.1194 C.2       1 <0>         0.0898
     10 C9         -1.2896   -4.9779    0.7611 C.2       1 <0>        -0.2388
     11 C10        -1.0931   -6.4360    0.6537 C.2       1 <0>         0.5574
     12 N1          0.1039   -6.8539    0.2781 N.am      1 <0>        -0.6874
     13 C11         1.1088   -5.9516    0.0045 C.2       1 <0>         0.3698
     14 N2          2.3429   -6.1938   -0.3767 N.2       1 <0>        -0.4519
     15 C12         2.7479   -7.4806   -0.6068 C.ar      1 <0>         0.1187
     16 C13         1.9933   -8.3166   -1.4330 C.ar      1 <0>        -0.1583
     17 C14         2.4074   -9.6125   -1.6606 C.ar      1 <0>        -0.0831
     18 C15         3.5676  -10.0853   -1.0727 C.ar      1 <0>        -0.1206
     19 C16         4.3205   -9.2634   -0.2532 C.ar      1 <0>        -0.0733
     20 C17         3.9215   -7.9626   -0.0210 C.ar      1 <0>        -0.0849
     21 Br1         4.9560   -6.8381    1.0931 Br        1 <0>        -0.0284
     22 S1          0.3232   -4.3731    0.2852 S.3       1 <0>         0.1064
     23 O2         -1.9919   -7.2190    0.9000 O.2       1 <0>        -0.4851
     24 O3         -4.6756   -2.6097    1.0878 O.3       1 <0>        -0.3093
     25 C18        -5.8096   -1.7403    1.0784 C.3       1 <0>         0.0243
     26 H1          1.2310    1.4285    2.5850 H         1 <0>         0.1043
     27 H2         -0.1790    1.6181    1.5153 H         1 <0>         0.0569
     28 H3         -0.4149    1.3186    3.2539 H         1 <0>         0.0565
     29 H4         -2.0815    0.9525    2.0435 H         1 <0>         0.1391
     30 H5         -4.2641   -0.0722    1.5711 H         1 <0>         0.1408
     31 H6         -0.1747   -2.8493    1.6574 H         1 <0>         0.1514
     32 H7         -3.3470   -4.7907    1.2169 H         1 <0>         0.1674
     33 H8          1.0875   -7.9493   -1.8922 H         1 <0>         0.1300
     34 H9          1.8245  -10.2599   -2.2989 H         1 <0>         0.1350
     35 H10         3.8866  -11.1010   -1.2543 H         1 <0>         0.1369
     36 H11         5.2247   -9.6391    0.2026 H         1 <0>         0.1402
     37 H12        -6.7079   -2.3171    0.8581 H         1 <0>         0.1059
     38 H13        -5.9124   -1.2666    2.0547 H         1 <0>         0.0594
     39 H14        -5.6737   -0.9740    0.3153 H         1 <0>         0.0593
     40 H15         0.2763   -7.8048    0.1946 H         1 <0>         0.4168
@<TRIPOS>BOND
     1    1    2 1
     2    1   26 1
     3    1   27 1
     4    1   28 1
     5    2    3 1
     6    3    8 ar
     7    3    4 ar
     8    4    5 ar
     9    4   29 1
    10    5    6 ar
    11    5   30 1
    12    6    7 ar
    13    6   24 1
    14    7    8 ar
    15    7    9 1
    16    8   31 1
    17    9   10 2
    18    9   32 1
    19   10   22 1
    20   10   11 1
    21   11   12 am
    22   11   23 2
    23   12   13 1
    24   12   40 1
    25   13   14 2
    26   13   22 1
    27   14   15 1
    28   15   20 ar
    29   15   16 ar
    30   16   17 ar
    31   16   33 1
    32   17   18 ar
    33   17   34 1
    34   18   19 ar
    35   18   35 1
    36   19   20 ar
    37   19   36 1
    38   20   21 1
    39   24   25 1
    40   25   37 1
    41   25   38 1
    42   25   39 1
@<TRIPOS>MOLECULE
ZINC65004255
   42    45     0     0     0
SMALL
USER_CHARGES

@<TRIPOS>ATOM
      1 C1         -0.0184    1.5028    0.0103 C.3       1 <0>        -0.0794
      2 C2          0.0021   -0.0041    0.0020 C.ar      1 <0>        -0.1407
      3 C3          0.0058   -0.6888   -1.1976 C.ar      1 <0>        -0.0679
      4 C4          0.0250   -2.0722   -1.2060 C.ar      1 <0>        -0.1288
      5 C5          0.0401   -2.7739   -0.0131 C.ar      1 <0>        -0.0564
      6 C6          0.0360   -2.0946    1.1891 C.ar      1 <0>        -0.2538
      7 C7          0.0230   -0.7055    1.2004 C.ar      1 <0>         0.2860
      8 N1          0.0251   -0.0153    2.4155 N.2       1 <0>        -1.0767
      9 S1          0.0500   -0.8532    3.8437 S.o2      1 <0>         2.6281
     10 O1         -1.1852   -1.5507    3.9269 O.2       1 <0>        -1.0156
     11 O2          1.3051   -1.5168    3.9033 O.2       1 <0>        -1.0175
     12 C8          0.0462    0.3348    5.1449 C.2       1 <0>        -0.6634
     13 C9         -1.0116    0.8916    5.7887 C.2       1 <0>        -0.0429
     14 C10        -0.7815    1.8107    6.7885 C.2       1 <0>        -0.1428
     15 C11         0.5150    2.1330    7.1004 C.2       1 <0>        -0.0941
     16 S2          1.4322    1.1097    5.9606 S.3       1 <0>         0.1987
     17 C12         1.0188    3.0737    8.1145 C.2       1 <0>         0.0368
     18 C13         0.2707    3.8238    8.9683 C.2       1 <0>        -0.0006
     19 N2          1.1170    4.5405    9.7227 N.2       1 <0>        -0.4745
     20 C14         2.3399    4.2616    9.3681 C.2       1 <0>         0.2107
     21 O3          2.3139    3.3544    8.3808 O.3       1 <0>        -0.1928
     22 C15         3.5837    4.8585    9.9745 C.3       1 <0>        -0.0268
     23 C16         3.4847    5.0769   11.4935 C.3       1 <0>        -0.1213
     24 C17         4.2222    6.4078   11.2709 C.3       1 <0>        -0.1395
     25 C18         3.6620    6.3883    9.8389 C.3       1 <0>        -0.1235
     26 Cl1         0.0297   -2.9295   -2.7155 Cl        1 <0>        -0.1152
     27 H1          1.0042    1.8801    0.0026 H         1 <0>         0.0506
     28 H2         -0.5455    1.8639   -0.8728 H         1 <0>         0.0410
     29 H3         -0.5286    1.8543    0.9071 H         1 <0>         0.0747
     30 H4         -0.0067   -0.1438   -2.1299 H         1 <0>         0.1161
     31 H5          0.0548   -3.8537   -0.0225 H         1 <0>         0.1132
     32 H6          0.0475   -2.6426    2.1196 H         1 <0>         0.1052
     33 H7         -2.0211    0.6175    5.5200 H         1 <0>         0.1527
     34 H8         -1.6051    2.2687    7.3161 H         1 <0>         0.1446
     35 H9         -0.8076    3.8395    9.0275 H         1 <0>         0.1915
     36 H10         4.4940    4.3455    9.6642 H         1 <0>         0.1190
     37 H11         2.4623    5.1988   11.8514 H         1 <0>         0.0981
     38 H12         4.0550    4.3539   12.0766 H         1 <0>         0.0756
     39 H13         3.8381    7.2269   11.8789 H         1 <0>         0.0766
     40 H14         5.3076    6.3184   11.3164 H         1 <0>         0.0853
     41 H15         4.3755    6.7240    9.0863 H         1 <0>         0.0772
     42 H16         2.6882    6.8687    9.7444 H         1 <0>         0.0926
@<TRIPOS>BOND
     1    1    2 1
     2    1   27 1
     3    1   28 1
     4    1   29 1
     5    2    7 ar
     6    2    3 ar
     7    3    4 ar
     8    3   30 1
     9    4    5 ar
    10    4   26 1
    11    5    6 ar
    12    5   31 1
    13    6    7 ar
    14    6   32 1
    15    7    8 1
    16    8    9 1
    17    9   10 2
    18    9   11 2
    19    9   12 1
    20   12   16 1
    21   12   13 2
    22   13   14 1
    23   13   33 1
    24   14   15 2
    25   14   34 1
    26   15   16 1
    27   15   17 1
    28   17   21 1
    29   17   18 2
    30   18   19 1
    31   18   35 1
    32   19   20 2
    33   20   21 1
    34   20   22 1
    35   22   25 1
    36   22   23 1
    37   22   36 1
    38   23   24 1
    39   23   37 1
    40   23   38 1
    41   24   25 1
    42   24   39 1
    43   24   40 1
    44   25   41 1
    45   25   42 1
@<TRIPOS>MOLECULE
ZINC21517448
   30    31     0     0     0
SMALL
USER_CHARGES
2,4-dichloro-6-[[[4-(trifluoromethyl)phenyl]amino]methyl]phenol
@<TRIPOS>ATOM
      1 C1         -5.5453    6.8127   -3.0590 C.ar      1 <0>        -0.0196
      2 C2         -4.3772    6.1131   -2.8279 C.ar      1 <0>        -0.2107
      3 C3         -4.0699    5.6827   -1.5435 C.ar      1 <0>         0.2670
      4 C4         -4.9418    5.9531   -0.4964 C.ar      1 <0>        -0.2115
      5 C5         -6.1056    6.6578   -0.7336 C.ar      1 <0>        -0.0178
      6 C6         -6.4086    7.0848   -2.0135 C.ar      1 <0>        -0.2722
      7 C7         -7.6820    7.8489   -2.2694 C.3       1 <0>         0.5150
      8 F1         -8.7103    6.9517   -2.5772 F         1 <0>        -0.1855
      9 F2         -8.0261    8.5781   -1.1262 F         1 <0>        -0.1843
     10 F3         -7.4919    8.7262   -3.3425 F         1 <0>        -0.1846
     11 N1         -2.8896    4.9745   -1.3063 N.pl3     1 <0>        -0.7188
     12 C8         -2.5670    4.5213    0.0490 C.3       1 <0>         0.2010
     13 C9         -1.2506    3.7878    0.0334 C.ar      1 <0>        -0.2542
     14 C10        -1.2293    2.4061    0.0209 C.ar      1 <0>        -0.0287
     15 C11        -0.0215    1.7317    0.0116 C.ar      1 <0>        -0.1656
     16 C12         1.1680    2.4390    0.0040 C.ar      1 <0>        -0.0424
     17 C13         1.1511    3.8210    0.0107 C.ar      1 <0>        -0.1652
     18 C14        -0.0604    4.4990    0.0254 C.ar      1 <0>         0.2970
     19 O1         -0.0797    5.8583    0.0325 O.3       1 <0>        -0.6768
     20 Cl1         2.6432    4.7082    0.0000 Cl        1 <0>        -0.0984
     21 Cl2         0.0021   -0.0041    0.0020 Cl        1 <0>        -0.1146
     22 H1         -5.7851    7.1474   -4.0575 H         1 <0>         0.1260
     23 H2         -3.7033    5.9013   -3.6449 H         1 <0>         0.1271
     24 H3         -4.7079    5.6161    0.5026 H         1 <0>         0.1290
     25 H4         -6.7819    6.8719    0.0807 H         1 <0>         0.1262
     26 H5         -2.2023    4.7570   -2.1371 H         1 <0>         0.4227
     27 H6         -2.4943    5.3908    0.7188 H         1 <0>         0.0674
     28 H7         -3.3583    3.8469    0.4082 H         1 <0>         0.0499
     29 H8         -2.1564    1.8522    0.0223 H         1 <0>         0.1091
     30 H9          2.1100    1.9107   -0.0075 H         1 <0>         0.1133
@<TRIPOS>BOND
     1    1    6 ar
     2    1    2 ar
     3    1   22 1
     4    2    3 ar
     5    2   23 1
     6    3    4 ar
     7    3   11 1
     8    4    5 ar
     9    4   24 1
    10    5    6 ar
    11    5   25 1
    12    6    7 1
    13    7    8 1
    14    7    9 1
    15    7   10 1
    16   11   12 1
    17   11   26 1
    18   12   13 1
    19   12   27 1
    20   12   28 1
    21   13   18 ar
    22   13   14 ar
    23   14   15 ar
    24   14   29 1
    25   15   16 ar
    26   15   21 1
    27   16   17 ar
    28   16   30 1
    29   17   18 ar
    30   17   20 1
    31   18   19 1
@<TRIPOS>MOLECULE
ZINC02308126
   31    33     0     0     0
SMALL
USER_CHARGES
3-(4-chlorophenyl)-4-[(2-chlorophenyl)methyleneamino]-1H-1,2,4-triazole-5-thione
@<TRIPOS>ATOM
      1 C1         -2.3481    3.9041    1.0296 C.ar      1 <0>        -0.1122
      2 C2         -3.5126    3.2250    1.3435 C.ar      1 <0>        -0.0859
      3 C3         -3.5509    1.8433    1.2927 C.ar      1 <0>        -0.1213
      4 C4         -2.4252    1.1314    0.9284 C.ar      1 <0>        -0.0010
      5 C5         -1.2458    1.8111    0.6102 C.ar      1 <0>        -0.1150
      6 C6         -1.2144    3.2067    0.6692 C.ar      1 <0>        -0.0847
      7 C7         -0.0393    1.0588    0.2201 C.2       1 <0>         0.1693
      8 N1          1.1360    1.5820    0.3931 N.2       1 <0>        -0.2225
      9 N2          1.2570    2.9353    0.7347 N.pl3     1 <0>        -0.3784
     10 C8          1.1302    3.4643    2.0052 C.2       1 <0>         0.2000
     11 N3          1.3061    4.7547    1.9358 N.2       1 <0>        -0.2941
     12 N4          1.5536    5.0875    0.5970 N.2       1 <0>        -0.3659
     13 C9          1.5227    3.9445   -0.1184 C.2       1 <0>         0.3980
     14 S1          1.7717    3.8017   -1.8061 S.3       1 <0>        -0.7434
     15 C10         0.8427    2.6962    3.2366 C.ar      1 <0>         0.0121
     16 C11         0.3635    1.3887    3.1504 C.ar      1 <0>        -0.1075
     17 C12         0.1017    0.6756    4.3019 C.ar      1 <0>        -0.1029
     18 C13         0.3040    1.2586    5.5415 C.ar      1 <0>        -0.0341
     19 C14         0.7744    2.5577    5.6330 C.ar      1 <0>        -0.1081
     20 C15         1.0442    3.2787    4.4883 C.ar      1 <0>        -0.0740
     21 Cl1        -0.0339    0.3575    6.9863 Cl        1 <0>        -0.0767
     22 Cl2        -2.4743   -0.6028    0.8662 Cl        1 <0>        -0.0642
     23 H1         -2.3259    4.9830    1.0719 H         1 <0>         0.1318
     24 H2         -4.3958    3.7768    1.6298 H         1 <0>         0.1341
     25 H3         -4.4630    1.3201    1.5390 H         1 <0>         0.1368
     26 H4         -0.3055    3.7382    0.4290 H         1 <0>         0.1608
     27 H5         -0.1351    0.0542   -0.2175 H         1 <0>         0.1981
     28 H6          0.2015    0.9344    2.1841 H         1 <0>         0.1346
     29 H7         -0.2660   -0.3377    4.2365 H         1 <0>         0.1346
     30 H8          0.9300    3.0076    6.6025 H         1 <0>         0.1373
     31 H9          1.4104    4.2921    4.5609 H         1 <0>         0.1445
@<TRIPOS>BOND
     1    1    6 ar
     2    1    2 ar
     3    1   23 1
     4    2    3 ar
     5    2   24 1
     6    3    4 ar
     7    3   25 1
     8    4    5 ar
     9    4   22 1
    10    5    6 ar
    11    5    7 1
    12    6   26 1
    13    7    8 2
    14    7   27 1
    15    8    9 1
    16    9   13 1
    17    9   10 1
    18   10   11 2
    19   10   15 1
    20   11   12 1
    21   12   13 2
    22   13   14 1
    23   15   20 ar
    24   15   16 ar
    25   16   17 ar
    26   16   28 1
    27   17   18 ar
    28   17   29 1
    29   18   19 ar
    30   18   21 1
    31   19   20 ar
    32   19   30 1
    33   20   31 1
@<TRIPOS>MOLECULE
ZINC39556938
   45    48     0     0     0
SMALL
USER_CHARGES

@<TRIPOS>ATOM
      1 C1         -0.0157    1.3058    0.0092 C.2       1 <0>        -0.1903
      2 C2          0.0021   -0.0041    0.0020 C.2       1 <0>        -0.1506
      3 C3          1.3172   -0.7397   -0.0145 C.3       1 <0>         0.1530
      4 N1          1.3674   -1.6756    1.1115 N.am      1 <0>        -0.5693
      5 C4          1.8337   -1.3990    2.3489 C.2       1 <0>         0.5134
      6 O1          2.2892   -0.3408    2.7456 O.2       1 <0>        -0.5214
      7 C5          1.6760   -2.6423    3.1158 C.2       1 <0>        -0.0340
      8 C6          2.0141   -2.8523    4.4377 C.2       1 <0>         0.0078
      9 C7          1.7960   -4.1200    5.0320 C.2       1 <0>        -0.1581
     10 C8          1.2642   -5.2379    4.4247 C.2       1 <0>         0.1180
     11 N2          1.2136   -6.2571    5.3186 N.pl3     1 <0>        -0.4718
     12 C9          1.7072   -5.8529    6.5424 C.ar      1 <0>         0.0859
     13 C10         2.0985   -4.5099    6.4231 C.ar      1 <0>        -0.0799
     14 C11         2.6432   -3.8411    7.5155 C.ar      1 <0>        -0.0778
     15 C12         2.7998   -4.5046    8.7134 C.ar      1 <0>        -0.1464
     16 C13         2.4174   -5.8324    8.8325 C.ar      1 <0>        -0.1132
     17 C14         1.8693   -6.5040    7.7611 C.ar      1 <0>        -0.1312
     18 C15         0.7055   -7.5995    5.0257 C.3       1 <0>         0.1470
     19 C16        -0.7433   -7.6877    5.4312 C.ar      1 <0>        -0.1451
     20 C17        -1.0806   -8.0859    6.7137 C.ar      1 <0>         0.1303
     21 C18        -2.4119   -8.1666    7.0850 C.ar      1 <0>        -0.1558
     22 C19        -3.4035   -7.8497    6.1755 C.ar      1 <0>        -0.0714
     23 C20        -3.0668   -7.4523    4.8954 C.ar      1 <0>        -0.1224
     24 C21        -1.7364   -7.3656    4.5244 C.ar      1 <0>         0.0015
     25 Cl1        -1.3144   -6.8595    2.9183 Cl        1 <0>        -0.0121
     26 F1         -0.1112   -8.3959    7.6022 F         1 <0>        -0.1258
     27 N3          1.1251   -3.5495    2.2518 N.2       1 <0>        -0.5526
     28 C22         0.9436   -2.9798    1.0903 C.2       1 <0>         0.4960
     29 S1          0.2509   -3.7816   -0.3175 S.3       1 <0>        -0.7791
     30 H1          0.9122    1.8585    0.0033 H         1 <0>         0.0948
     31 H2         -0.9582    1.8330    0.0166 H         1 <0>         0.0963
     32 H3         -0.9258   -0.5567    0.0079 H         1 <0>         0.1142
     33 H4          1.4134   -1.2911   -0.9498 H         1 <0>         0.1063
     34 H5          2.1349   -0.0241    0.0711 H         1 <0>         0.0787
     35 H6          2.4449   -2.0504    5.0189 H         1 <0>         0.1285
     36 H7          0.9378   -5.2934    3.3967 H         1 <0>         0.2102
     37 H8          2.9420   -2.8072    7.4249 H         1 <0>         0.1208
     38 H9          3.2225   -3.9885    9.5627 H         1 <0>         0.1180
     39 H10         2.5444   -6.3431    9.7756 H         1 <0>         0.1187
     40 H11         1.5763   -7.5384    7.8643 H         1 <0>         0.1273
     41 H12         0.7965   -7.7975    3.9577 H         1 <0>         0.1128
     42 H13         1.2841   -8.3365    5.5826 H         1 <0>         0.0999
     43 H14        -2.6758   -8.4774    8.0851 H         1 <0>         0.1420
     44 H15        -4.4419   -7.9131    6.4654 H         1 <0>         0.1430
     45 H16        -3.8423   -7.2053    4.1855 H         1 <0>         0.1437
@<TRIPOS>BOND
     1    1    2 2
     2    1   30 1
     3    1   31 1
     4    2    3 1
     5    2   32 1
     6    3    4 1
     7    3   33 1
     8    3   34 1
     9    4   28 1
    10    4    5 am
    11    5    6 2
    12    5    7 1
    13    7    8 2
    14    7   27 1
    15    8    9 1
    16    8   35 1
    17    9   13 1
    18    9   10 2
    19   10   11 1
    20   10   36 1
    21   11   12 1
    22   11   18 1
    23   12   17 ar
    24   12   13 ar
    25   13   14 ar
    26   14   15 ar
    27   14   37 1
    28   15   16 ar
    29   15   38 1
    30   16   17 ar
    31   16   39 1
    32   17   40 1
    33   18   19 1
    34   18   41 1
    35   18   42 1
    36   19   24 ar
    37   19   20 ar
    38   20   21 ar
    39   20   26 1
    40   21   22 ar
    41   21   43 1
    42   22   23 ar
    43   22   44 1
    44   23   24 ar
    45   23   45 1
    46   24   25 1
    47   27   28 2
    48   28   29 1
@<TRIPOS>MOLECULE
ZINC48440713
   35    36     0     0     0
SMALL
USER_CHARGES

@<TRIPOS>ATOM
      1 C1         -0.0187    1.5258    0.0104 C.3       1 <0>        -0.1354
      2 C2          0.0021   -0.0041    0.0020 C.3       1 <0>        -0.0141
      3 C3          0.7421   -0.5109    1.2415 C.3       1 <0>        -0.1354
      4 C4         -1.4333   -0.5336    0.0129 C.3       1 <0>        -0.1376
      5 C5          0.7074   -0.4901   -1.2379 C.ar      1 <0>        -0.1792
      6 C6          0.0344   -1.2845   -2.1478 C.ar      1 <0>        -0.0781
      7 C7          0.6778   -1.7316   -3.2851 C.ar      1 <0>        -0.1807
      8 C8          2.0026   -1.3824   -3.5144 C.ar      1 <0>         0.2772
      9 C9          2.6757   -0.5842   -2.5982 C.ar      1 <0>        -0.2620
     10 C10         2.0246   -0.1359   -1.4658 C.ar      1 <0>        -0.0582
     11 N1          2.6565   -1.8332   -4.6634 N.2       1 <0>        -1.0922
     12 S1          4.2358   -1.4158   -4.9349 S.o2      1 <0>         2.6208
     13 O1          4.2544   -0.0102   -5.1427 O.2       1 <0>        -1.0081
     14 O2          5.0030   -2.0457   -3.9180 O.2       1 <0>        -1.0080
     15 C11         4.7158   -2.1568   -6.4597 C.2       1 <0>        -0.6445
     16 C12         5.9128   -2.1054   -7.0945 C.2       1 <0>        -0.0297
     17 C13         6.0631   -2.7723   -8.2964 C.2       1 <0>        -0.1634
     18 C14         5.0094   -3.4575   -8.8041 C.2       1 <0>        -0.1754
     19 S2          3.7545   -3.1765   -7.5658 S.3       1 <0>         0.2200
     20 Br1         7.3544   -1.1359   -6.3479 Br        1 <0>        -0.0319
     21 H1          1.0039    1.9031    0.0027 H         1 <0>         0.0529
     22 H2         -0.5459    1.8868   -0.8726 H         1 <0>         0.0533
     23 H3         -0.5289    1.8773    0.9072 H         1 <0>         0.0456
     24 H4          0.2319   -0.1594    2.1383 H         1 <0>         0.0455
     25 H5          0.7568   -1.6008    1.2356 H         1 <0>         0.0533
     26 H6          1.7647   -0.1336    1.2338 H         1 <0>         0.0529
     27 H7         -1.9605   -0.1726   -0.8702 H         1 <0>         0.0555
     28 H8         -1.4185   -1.6235    0.0069 H         1 <0>         0.0555
     29 H9         -1.9435   -0.1821    0.9097 H         1 <0>         0.0460
     30 H10        -0.9955   -1.5560   -1.9688 H         1 <0>         0.1091
     31 H11         0.1516   -2.3524   -3.9952 H         1 <0>         0.1109
     32 H12         3.7059   -0.3112   -2.7733 H         1 <0>         0.0945
     33 H13         2.5460    0.4884   -0.7553 H         1 <0>         0.0999
     34 H14         7.0057   -2.7473   -8.8230 H         1 <0>         0.1443
     35 H15         4.9466   -4.0288   -9.7185 H         1 <0>         0.1963
@<TRIPOS>BOND
     1    1    2 1
     2    1   21 1
     3    1   22 1
     4    1   23 1
     5    2    3 1
     6    2    4 1
     7    2    5 1
     8    3   24 1
     9    3   25 1
    10    3   26 1
    11    4   27 1
    12    4   28 1
    13    4   29 1
    14    5   10 ar
    15    5    6 ar
    16    6    7 ar
    17    6   30 1
    18    7    8 ar
    19    7   31 1
    20    8    9 ar
    21    8   11 1
    22    9   10 ar
    23    9   32 1
    24   10   33 1
    25   11   12 1
    26   12   13 2
    27   12   14 2
    28   12   15 1
    29   15   19 1
    30   15   16 2
    31   16   17 1
    32   16   20 1
    33   17   18 2
    34   17   34 1
    35   18   19 1
    36   18   35 1
@<TRIPOS>MOLECULE
ZINC33385774
   34    36     0     0     0
SMALL
USER_CHARGES

@<TRIPOS>ATOM
      1 C1         -0.0167    1.3781    0.0096 C.ar      1 <0>        -0.1092
      2 C2          1.1709    2.0855    0.0021 C.ar      1 <0>        -0.1278
      3 C3          2.3773    1.4107   -0.0130 C.ar      1 <0>        -0.0941
      4 C4          2.3960    0.0285   -0.0201 C.ar      1 <0>        -0.1195
      5 C5          1.2084   -0.6789   -0.0117 C.ar      1 <0>        -0.0921
      6 C6          0.0021   -0.0041    0.0020 C.ar      1 <0>        -0.1265
      7 C7          3.7112   -0.7071   -0.0376 C.3       1 <0>         0.1266
      8 N1          4.1518   -0.9524    1.3379 N.am      1 <0>        -0.5187
      9 C8          4.9053   -0.0513    1.9454 C.2       1 <0>         0.5505
     10 O1          5.2432    0.9782    1.3912 O.2       1 <0>        -0.4637
     11 C9          5.3157   -0.3576    3.3308 C.2       1 <0>        -0.2537
     12 C10         6.0764    0.3687    4.1884 C.2       1 <0>         0.1206
     13 C11         6.3568   -0.1438    5.5359 C.ar      1 <0>        -0.0420
     14 C12         5.3112   -0.6113    6.3430 C.ar      1 <0>        -0.1400
     15 C13         5.5804   -1.0921    7.6076 C.ar      1 <0>        -0.0425
     16 C14         6.8809   -1.1146    8.0830 C.ar      1 <0>        -0.1382
     17 C15         7.9253   -0.6530    7.2913 C.ar      1 <0>         0.2881
     18 C16         7.6710   -0.1731    6.0180 C.ar      1 <0>        -0.1218
     19 Cl1         8.9760    0.3972    5.0253 Cl        1 <0>        -0.0707
     20 O2          9.1994   -0.6781    7.7657 O.3       1 <0>        -0.6498
     21 Cl2         7.2079   -1.7218    9.6761 Cl        1 <0>        -0.0778
     22 Cl3         3.6789   -0.5850    5.7525 Cl        1 <0>        -0.0641
     23 S1          4.5340   -1.9478    3.5677 S.3       1 <0>         0.1444
     24 C17         3.7752   -2.0894    1.9576 C.2       1 <0>         0.2641
     25 S2          2.8058   -3.3618    1.3474 S.2       1 <0>        -0.3969
     26 H1         -0.9591    1.9053    0.0259 H         1 <0>         0.1216
     27 H2          1.1563    3.1654    0.0076 H         1 <0>         0.1227
     28 H3          3.3051    1.9634   -0.0196 H         1 <0>         0.1273
     29 H4          1.2231   -1.7588   -0.0176 H         1 <0>         0.1409
     30 H5         -0.9258   -0.5567    0.0082 H         1 <0>         0.1240
     31 H6          3.5884   -1.6586   -0.5549 H         1 <0>         0.1185
     32 H7          4.4573   -0.1052   -0.5563 H         1 <0>         0.1092
     33 H8          6.4756    1.3237    3.8801 H         1 <0>         0.1619
     34 H9          4.7740   -1.4520    8.2294 H         1 <0>         0.1285
@<TRIPOS>BOND
     1    1    6 ar
     2    1    2 ar
     3    1   26 1
     4    2    3 ar
     5    2   27 1
     6    3    4 ar
     7    3   28 1
     8    4    5 ar
     9    4    7 1
    10    5    6 ar
    11    5   29 1
    12    6   30 1
    13    7    8 1
    14    7   31 1
    15    7   32 1
    16    8   24 1
    17    8    9 am
    18    9   10 2
    19    9   11 1
    20   11   12 2
    21   11   23 1
    22   12   13 1
    23   12   33 1
    24   13   18 ar
    25   13   14 ar
    26   14   15 ar
    27   14   22 1
    28   15   16 ar
    29   15   34 1
    30   16   17 ar
    31   16   21 1
    32   17   18 ar
    33   17   20 1
    34   18   19 1
    35   23   24 1
    36   24   25 2
@<TRIPOS>MOLECULE
ZINC06476086
   43    46     0     0     0
SMALL
USER_CHARGES
3-(4-chlorophenyl)sulfanyl-4-hydroxy-1-phenyl-5,6,7,8-tetrahydroquinolin-2-one
@<TRIPOS>ATOM
      1 C1         -4.7214    6.2904    2.4638 C.ar      1 <0>        -0.1239
      2 C2         -3.6720    6.2786    3.3642 C.ar      1 <0>        -0.1115
      3 C3         -2.7875    5.2180    3.3823 C.ar      1 <0>        -0.1004
      4 C4         -2.9532    4.1625    2.4952 C.ar      1 <0>         0.1463
      5 C5         -4.0050    4.1799    1.5886 C.ar      1 <0>        -0.1171
      6 C6         -4.8894    5.2407    1.5794 C.ar      1 <0>        -0.1126
      7 N1         -2.0581    3.0856    2.5110 N.am      1 <0>        -0.4927
      8 C7         -1.1588    2.9521    1.4844 C.2       1 <0>         0.1560
      9 C8         -0.2826    1.9323    1.4787 C.2       1 <0>        -0.2007
     10 C9         -0.3010    0.9873    2.5327 C.2       1 <0>         0.3608
     11 C10        -1.2144    1.1275    3.5619 C.2       1 <0>        -0.4782
     12 C11        -2.1050    2.2143    3.5305 C.2       1 <0>         0.5557
     13 O1         -2.9189    2.3654    4.4287 O.2       1 <0>        -0.5734
     14 S1         -1.2608   -0.0339    4.8861 S.3       1 <0>         0.0700
     15 C12        -2.8201   -0.8325    4.6983 C.ar      1 <0>        -0.0734
     16 C13        -3.6192   -0.5496    3.5968 C.ar      1 <0>        -0.1023
     17 C14        -4.8383   -1.1810    3.4497 C.ar      1 <0>        -0.0937
     18 C15        -5.2698   -2.0866    4.4034 C.ar      1 <0>        -0.0654
     19 C16        -4.4789   -2.3661    5.5043 C.ar      1 <0>        -0.0945
     20 C17        -3.2563   -1.7424    5.6542 C.ar      1 <0>        -0.1141
     21 Cl1        -6.8059   -2.8738    4.2180 Cl        1 <0>        -0.0965
     22 O2          0.5719   -0.0508    2.5329 O.3       1 <0>        -0.6489
     23 C18         0.7423    1.7346    0.3926 C.3       1 <0>        -0.0444
     24 C19         0.3723    2.5382   -0.8520 C.3       1 <0>        -0.1243
     25 C20         0.0840    3.9818   -0.4212 C.3       1 <0>        -0.1132
     26 C21        -1.2094    3.9883    0.3902 C.3       1 <0>        -0.0813
     27 H1         -5.4115    7.1211    2.4514 H         1 <0>         0.1217
     28 H2         -3.5437    7.0998    4.0539 H         1 <0>         0.1242
     29 H3         -1.9681    5.2093    4.0858 H         1 <0>         0.1228
     30 H4         -4.1337    3.3627    0.8942 H         1 <0>         0.1221
     31 H5         -5.7101    5.2526    0.8776 H         1 <0>         0.1240
     32 H6         -3.2851    0.1602    2.8546 H         1 <0>         0.1236
     33 H7         -5.4577   -0.9650    2.5918 H         1 <0>         0.1213
     34 H8         -4.8183   -3.0732    6.2468 H         1 <0>         0.1261
     35 H9         -2.6393   -1.9615    6.5131 H         1 <0>         0.1278
     36 H10         1.7266    2.0692    0.7520 H         1 <0>         0.0643
     37 H11         0.7925    0.6687    0.1254 H         1 <0>         0.0766
     38 H12         1.2097    2.5162   -1.5650 H         1 <0>         0.0643
     39 H13        -0.5201    2.0979   -1.3209 H         1 <0>         0.0618
     40 H14         0.9172    4.3546    0.1926 H         1 <0>         0.0677
     41 H15        -0.0263    4.6156   -1.3134 H         1 <0>         0.0673
     42 H16        -2.0517    3.7701   -0.2827 H         1 <0>         0.0810
     43 H17        -1.3443    4.9852    0.8352 H         1 <0>         0.0772
@<TRIPOS>BOND
     1    1    6 ar
     2    1    2 ar
     3    1   27 1
     4    2    3 ar
     5    2   28 1
     6    3    4 ar
     7    3   29 1
     8    4    5 ar
     9    4    7 1
    10    5    6 ar
    11    5   30 1
    12    6   31 1
    13    7   12 am
    14    7    8 1
    15    8   26 1
    16    8    9 2
    17    9   10 1
    18    9   23 1
    19   10   11 2
    20   10   22 1
    21   11   12 1
    22   11   14 1
    23   12   13 2
    24   14   15 1
    25   15   20 ar
    26   15   16 ar
    27   16   17 ar
    28   16   32 1
    29   17   18 ar
    30   17   33 1
    31   18   19 ar
    32   18   21 1
    33   19   20 ar
    34   19   34 1
    35   20   35 1
    36   23   24 1
    37   23   36 1
    38   23   37 1
    39   24   25 1
    40   24   38 1
    41   24   39 1
    42   25   26 1
    43   25   40 1
    44   25   41 1
    45   26   42 1
    46   26   43 1
@<TRIPOS>MOLECULE
ZINC20357133
   40    43     0     0     0
SMALL
USER_CHARGES

@<TRIPOS>ATOM
      1 C1         -0.1447    1.4831   -0.0122 C.3       1 <0>        -0.1014
      2 C2         -0.0590   -0.0213    0.0075 C.ar      1 <0>        -0.1078
      3 C3         -0.5722   -0.7539   -1.0498 C.ar      1 <0>        -0.0848
      4 C4         -0.4988   -2.1300   -1.0404 C.ar      1 <0>        -0.1268
      5 C5          0.0973   -2.7882    0.0422 C.ar      1 <0>         0.1636
      6 C6          0.6146   -2.0399    1.1078 C.ar      1 <0>        -0.0518
      7 C7          0.5371   -0.6623    1.0792 C.ar      1 <0>        -0.0969
      8 Cl1         1.3559   -2.8427    2.4567 Cl        1 <0>        -0.0824
      9 N1          0.1734   -4.1469    0.0594 N.2       1 <0>        -0.5524
     10 C8          0.7692   -4.7832   -0.9216 C.2       1 <0>         0.3248
     11 C9          0.7735   -6.2481   -1.1530 C.ar      1 <0>        -0.0565
     12 C10         0.2055   -7.3152   -0.4739 C.ar      1 <0>        -0.0803
     13 C11         0.3874   -8.6062   -0.9422 C.ar      1 <0>        -0.1285
     14 C12         1.1328   -8.8367   -2.0842 C.ar      1 <0>        -0.1195
     15 C13         1.7066   -7.7837   -2.7731 C.ar      1 <0>        -0.0885
     16 C14         1.5337   -6.4782   -2.3168 C.ar      1 <0>        -0.0819
     17 C15         2.0091   -5.1790   -2.8227 C.2       1 <0>         0.3431
     18 C16         1.5591   -4.1795   -2.0112 C.2       1 <0>        -0.4363
     19 C17         1.8218   -2.7350   -2.1912 C.ar      1 <0>         0.0862
     20 C18         2.6137   -2.0466   -1.2707 C.ar      1 <0>        -0.1191
     21 C19         2.8553   -0.6996   -1.4446 C.ar      1 <0>        -0.1127
     22 C20         2.3141   -0.0308   -2.5283 C.ar      1 <0>        -0.1451
     23 C21         1.5279   -0.7072   -3.4442 C.ar      1 <0>        -0.1223
     24 C22         1.2837   -2.0556   -3.2853 C.ar      1 <0>        -0.1138
     25 O1          2.7722   -5.0033   -3.9286 O.3       1 <0>        -0.6504
     26 H1          0.7432    1.8913   -0.4951 H         1 <0>         0.0647
     27 H2         -1.0325    1.7892   -0.5656 H         1 <0>         0.0591
     28 H3         -0.2068    1.8569    1.0098 H         1 <0>         0.0572
     29 H4         -1.0318   -0.2451   -1.8842 H         1 <0>         0.1138
     30 H5         -0.9004   -2.6993   -1.8656 H         1 <0>         0.1199
     31 H6          0.9391   -0.0831    1.8974 H         1 <0>         0.1187
     32 H7         -0.3772   -7.1403    0.4185 H         1 <0>         0.1253
     33 H8         -0.0550   -9.4370   -0.4127 H         1 <0>         0.1216
     34 H9          1.2683   -9.8472   -2.4405 H         1 <0>         0.1207
     35 H10         2.2872   -7.9727   -3.6640 H         1 <0>         0.1245
     36 H11         3.0361   -2.5673   -0.4240 H         1 <0>         0.1017
     37 H12         3.4679   -0.1658   -0.7331 H         1 <0>         0.1020
     38 H13         2.5060    1.0239   -2.6597 H         1 <0>         0.1023
     39 H14         1.1081   -0.1793   -4.2877 H         1 <0>         0.1040
     40 H15         0.6738   -2.5835   -4.0035 H         1 <0>         0.1062
@<TRIPOS>BOND
     1    1    2 1
     2    1   26 1
     3    1   27 1
     4    1   28 1
     5    2    7 ar
     6    2    3 ar
     7    3    4 ar
     8    3   29 1
     9    4    5 ar
    10    4   30 1
    11    5    6 ar
    12    5    9 1
    13    6    7 ar
    14    6    8 1
    15    7   31 1
    16    9   10 2
    17   10   18 1
    18   10   11 1
    19   11   16 ar
    20   11   12 ar
    21   12   13 ar
    22   12   32 1
    23   13   14 ar
    24   13   33 1
    25   14   15 ar
    26   14   34 1
    27   15   16 ar
    28   15   35 1
    29   16   17 1
    30   17   25 1
    31   17   18 2
    32   18   19 1
    33   19   24 ar
    34   19   20 ar
    35   20   21 ar
    36   20   36 1
    37   21   22 ar
    38   21   37 1
    39   22   23 ar
    40   22   38 1
    41   23   24 ar
    42   23   39 1
    43   24   40 1
@<TRIPOS>MOLECULE
ZINC03021172
   40    42     0     0     0
SMALL
USER_CHARGES
2-[2-(2,6-dimethylphenoxy)ethylsulfanyl]-1H-quinazolin-4-one
@<TRIPOS>ATOM
      1 C1          7.5396    2.3362    2.3265 C.3       1 <0>        -0.1139
      2 C2          8.2366    2.1571    1.0024 C.ar      1 <0>        -0.0965
      3 C3          9.5762    1.8215    0.9662 C.ar      1 <0>        -0.1172
      4 C4         10.2176    1.6622   -0.2483 C.ar      1 <0>        -0.1208
      5 C5          9.5192    1.8335   -1.4293 C.ar      1 <0>        -0.1179
      6 C6          8.1782    2.1640   -1.3984 C.ar      1 <0>        -0.0964
      7 C7          7.5323    2.3240   -0.1812 C.ar      1 <0>         0.0971
      8 O1          6.2131    2.6490   -0.1481 O.3       1 <0>        -0.3246
      9 C8          5.2788    1.5679   -0.1315 C.3       1 <0>         0.0839
     10 C9          3.8545    2.1253   -0.0949 C.3       1 <0>        -0.1022
     11 S1          2.6710    0.7559   -0.0738 S.3       1 <0>        -0.0381
     12 C10         1.1586    1.6591   -0.0332 C.ar      1 <0>         0.3743
     13 N1         -0.0113    0.9660   -0.0095 N.ar      1 <0>        -0.6247
     14 C11        -1.2202    1.6381    0.0168 C.ar      1 <0>         0.1970
     15 C12        -2.4325    0.9630    0.0304 C.ar      1 <0>        -0.1425
     16 C13        -3.6123    1.6773    0.0563 C.ar      1 <0>        -0.0792
     17 C14        -3.5991    3.0644    0.0636 C.ar      1 <0>        -0.1937
     18 C15        -2.4044    3.7519    0.0506 C.ar      1 <0>        -0.0252
     19 C16        -1.2058    3.0433    0.0299 C.ar      1 <0>        -0.2611
     20 C17         0.1024    3.7253    0.0211 C.ar      1 <0>         0.5328
     21 O2          0.1718    4.9429    0.0266 O.3       1 <0>        -0.5748
     22 N2          1.2120    2.9751   -0.0272 N.ar      1 <0>        -0.6838
     23 C18         7.4175    2.3501   -2.6860 C.3       1 <0>        -0.1208
     24 H1          8.2554    2.1644    3.1439 H         1 <0>         0.0642
     25 H2          6.7125    1.6153    2.4059 H         1 <0>         0.0704
     26 H3          7.1421    3.3595    2.3962 H         1 <0>         0.0760
     27 H4         10.1238    1.6871    1.8873 H         1 <0>         0.1240
     28 H5         11.2658    1.4039   -0.2745 H         1 <0>         0.1224
     29 H6         10.0224    1.7086   -2.3767 H         1 <0>         0.1238
     30 H7          5.4099    0.9560   -1.0362 H         1 <0>         0.0612
     31 H8          5.4525    0.9467    0.7595 H         1 <0>         0.0604
     32 H9          3.7234    2.7371    0.8098 H         1 <0>         0.1022
     33 H10         3.6807    2.7464   -0.9859 H         1 <0>         0.1021
     34 H11        -2.4534   -0.0367    0.0215 H         1 <0>         0.1100
     35 H12        -4.4884    1.1953    0.0701 H         1 <0>         0.1049
     36 H13        -4.4643    3.5656    0.0785 H         1 <0>         0.1034
     37 H14        -2.4030    4.7519    0.0559 H         1 <0>         0.1069
     38 H15         6.3722    2.6078   -2.4603 H         1 <0>         0.0766
     39 H16         7.4477    1.4170   -3.2678 H         1 <0>         0.0689
     40 H17         7.8774    3.1612   -3.2696 H         1 <0>         0.0710
@<TRIPOS>BOND
     1    1    2 1
     2    1   24 1
     3    1   25 1
     4    1   26 1
     5    2    7 ar
     6    2    3 ar
     7    3    4 ar
     8    3   27 1
     9    4    5 ar
    10    4   28 1
    11    5    6 ar
    12    5   29 1
    13    6    7 ar
    14    6   23 1
    15    7    8 1
    16    8    9 1
    17    9   10 1
    18    9   30 1
    19    9   31 1
    20   10   11 1
    21   10   32 1
    22   10   33 1
    23   11   12 1
    24   12   13 ar
    25   12   22 ar
    26   13   14 ar
    27   14   19 ar
    28   14   15 ar
    29   15   16 ar
    30   15   34 1
    31   16   17 ar
    32   16   35 1
    33   17   18 ar
    34   17   36 1
    35   18   19 ar
    36   18   37 1
    37   19   20 ar
    38   20   21 1
    39   20   22 ar
    40   23   38 1
    41   23   39 1
    42   23   40 1
@<TRIPOS>MOLECULE
ZINC48383387
   36    37     0     0     0
SMALL
USER_CHARGES

@<TRIPOS>ATOM
      1 C1          1.1946   -0.6619   -0.7989 C.ar      1 <0>        -0.1154
      2 C2          2.3955    0.0186   -0.8108 C.ar      1 <0>        -0.0609
      3 C3          2.4584    1.3247   -0.3408 C.ar      1 <0>        -0.1418
      4 C4          1.3123    1.9453    0.1408 C.ar      1 <0>        -0.0972
      5 C5          0.1117    1.2640    0.1523 C.ar      1 <0>        -0.1240
      6 C6          0.0494   -0.0413   -0.3175 C.ar      1 <0>         0.1925
      7 N1         -1.1697   -0.7325   -0.3057 N.am      1 <0>        -0.6473
      8 C7         -1.1873   -2.0643   -0.0994 C.2       1 <0>         0.5523
      9 O1         -0.1600   -2.6497    0.1709 O.2       1 <0>        -0.5299
     10 C8         -2.4833   -2.8261   -0.2046 C.3       1 <0>        -0.0857
     11 H1         -3.2047   -2.2443   -0.7784 H         1 <0>         0.0818
     12 C9         -2.2366   -4.1677   -0.8980 C.3       1 <0>        -0.0681
     13 C10        -1.4548   -5.0788    0.0024 C.2       1 <0>        -0.1604
     14 C11        -1.3270   -4.9027    1.2784 C.2       1 <0>        -0.1236
     15 C12        -1.9335   -3.7567    2.0339 C.3       1 <0>        -0.0747
     16 C13        -3.0386   -3.0955    1.1997 C.3       1 <0>        -0.1430
     17 H2         -3.8954   -3.7659    1.1325 H         1 <0>         0.0751
     18 C14        -3.4560   -1.7955    1.8374 C.2       1 <0>         0.4957
     19 O2         -4.4785   -1.7418    2.4994 O.co2     1 <0>        -0.6938
     20 O3         -2.7713   -0.7973    1.6913 O.co2     1 <0>        -0.6893
     21 S1          3.9912    2.1936   -0.3552 S.3       1 <0>        -0.0394
     22 C15         3.5806    3.8193    0.3369 C.3       1 <0>         0.4524
     23 F1          3.0766    3.6609    1.6323 F         1 <0>        -0.1627
     24 F2          4.7320    4.6128    0.3783 F         1 <0>        -0.1507
     25 F3          2.6165    4.4380   -0.4661 F         1 <0>        -0.1645
     26 H3          1.1447   -1.6755   -1.1683 H         1 <0>         0.1445
     27 H4          3.2862   -0.4642   -1.1849 H         1 <0>         0.1306
     28 H5          1.3608    2.9603    0.5065 H         1 <0>         0.1219
     29 H6         -0.7792    1.7463    0.5266 H         1 <0>         0.1389
     30 H7         -2.0009   -0.2525   -0.4460 H         1 <0>         0.4180
     31 H8         -3.1933   -4.6313   -1.1387 H         1 <0>         0.0758
     32 H9         -1.6764   -4.0012   -1.8181 H         1 <0>         0.0654
     33 H10        -0.9689   -5.9349   -0.4418 H         1 <0>         0.0945
     34 H11        -0.7475   -5.6252    1.8338 H         1 <0>         0.0930
     35 H12        -2.3581   -4.1242    2.9682 H         1 <0>         0.0631
     36 H13        -1.1608   -3.0206    2.2554 H         1 <0>         0.0767
@<TRIPOS>BOND
     1    1    6 ar
     2    1    2 ar
     3    1   26 1
     4    2    3 ar
     5    2   27 1
     6    3    4 ar
     7    3   21 1
     8    4    5 ar
     9    4   28 1
    10    5    6 ar
    11    5   29 1
    12    6    7 1
    13    7    8 am
    14    7   30 1
    15    8    9 2
    16    8   10 1
    17   10   11 1
    18   10   16 1
    19   10   12 1
    20   12   13 1
    21   12   31 1
    22   12   32 1
    23   13   14 2
    24   13   33 1
    25   14   15 1
    26   14   34 1
    27   15   16 1
    28   15   35 1
    29   15   36 1
    30   16   17 1
    31   16   18 1
    32   18   19 2
    33   18   20 1
    34   21   22 1
    35   22   23 1
    36   22   24 1
    37   22   25 1
@<TRIPOS>MOLECULE
ZINC59502673
   28    30     0     0     0
SMALL
USER_CHARGES

@<TRIPOS>ATOM
      1 C1         -0.0169    1.3966    0.0097 C.ar      1 <0>        -0.1198
      2 C2          1.1312    2.1208    0.0026 C.ar      1 <0>        -0.0900
      3 C3          2.3959    1.4851   -0.0133 C.ar      1 <0>         0.1420
      4 C4          2.3894    0.0697   -0.0207 C.ar      1 <0>        -0.1665
      5 C5          1.2346   -0.6651   -0.0136 C.ar      1 <0>        -0.0172
      6 C6          0.0021   -0.0041    0.0020 C.ar      1 <0>         0.0307
      7 N1         -1.1667   -0.7143    0.0098 N.2       1 <0>        -0.4169
      8 C7         -2.1305   -0.3749    0.8196 C.2       1 <0>         0.1553
      9 C8         -3.3871   -1.1385    0.8280 C.ar      1 <0>        -0.0631
     10 C9         -4.4259   -0.7743    1.6910 C.ar      1 <0>        -0.0658
     11 C10        -5.6018   -1.4945    1.6934 C.ar      1 <0>        -0.0410
     12 C11        -5.7595   -2.5785    0.8438 C.ar      1 <0>        -0.0793
     13 C12        -4.7405   -2.9492   -0.0136 C.ar      1 <0>        -0.0633
     14 C13        -3.5532   -2.2328   -0.0336 C.ar      1 <0>         0.1669
     15 O1         -2.5539   -2.5926   -0.8794 O.3       1 <0>        -0.4558
     16 Cl1        -4.9502   -4.3090   -1.0722 Cl        1 <0>        -0.0438
     17 Cl2        -6.8902   -1.0420    2.7653 Cl        1 <0>        -0.0549
     18 S1          4.1234   -0.3175   -0.0394 S.3       1 <0>        -0.1159
     19 C14         4.7292    1.3639   -0.0362 C.2       1 <0>         0.3717
     20 S2          6.3949    1.9383   -0.0496 S.3       1 <0>        -0.6819
     21 N2          3.6160    2.0632   -0.0218 N.2       1 <0>        -0.5747
     22 H1         -0.9660    1.9117    0.0261 H         1 <0>         0.1211
     23 H2          1.0789    3.1995    0.0089 H         1 <0>         0.1255
     24 H3          1.2747   -1.7443   -0.0201 H         1 <0>         0.1278
     25 H4         -2.0059    0.4672    1.4843 H         1 <0>         0.1145
     26 H5         -4.3071    0.0694    2.3547 H         1 <0>         0.1497
     27 H6         -6.6838   -3.1371    0.8522 H         1 <0>         0.1475
     28 H7         -1.9342   -3.2340   -0.5058 H         1 <0>         0.3973
@<TRIPOS>BOND
     1    1    6 ar
     2    1    2 ar
     3    1   22 1
     4    2    3 ar
     5    2   23 1
     6    3   21 1
     7    3    4 ar
     8    4    5 ar
     9    4   18 1
    10    5    6 ar
    11    5   24 1
    12    6    7 1
    13    7    8 2
    14    8    9 1
    15    8   25 1
    16    9   14 ar
    17    9   10 ar
    18   10   11 ar
    19   10   26 1
    20   11   12 ar
    21   11   17 1
    22   12   13 ar
    23   12   27 1
    24   13   14 ar
    25   13   16 1
    26   14   15 1
    27   15   28 1
    28   18   19 1
    29   19   20 1
    30   19   21 2
@<TRIPOS>MOLECULE
ZINC02342471
   48    50     0     0     0
SMALL
USER_CHARGES

@<TRIPOS>ATOM
      1 C1         -0.0187    1.5258    0.0104 C.3       1 <0>        -0.1377
      2 C2          0.0021   -0.0041    0.0020 C.3       1 <0>        -0.0886
      3 S1         -1.6997   -0.6320    0.0149 S.3       1 <0>        -0.1326
      4 C3         -1.5080   -2.3834    0.0037 C.2       1 <0>         0.2304
      5 C4         -2.6408   -3.1794    0.0046 C.2       1 <0>        -0.2189
      6 C5         -2.4336   -4.6834   -0.0058 C.3       1 <0>         0.1281
      7 H1         -2.9203   -5.1003    0.8760 H         1 <0>         0.0446
      8 C6         -0.9910   -5.1520   -0.0170 C.2       1 <0>        -0.3958
      9 C7         -0.7125   -6.4655   -0.0300 C.2       1 <0>         0.3281
     10 C8          0.7079   -6.9644   -0.0401 C.3       1 <0>        -0.1294
     11 C9          1.5995   -5.9373   -0.7440 C.3       1 <0>        -0.1087
     12 C10         1.4697   -4.5927   -0.0233 C.3       1 <0>        -0.0762
     13 C11         0.0187   -4.1722   -0.0149 C.2       1 <0>         0.2977
     14 N1         -0.2760   -2.8961   -0.0109 N.2       1 <0>        -0.6389
     15 O1         -1.7251   -7.3553   -0.0335 O.3       1 <0>        -0.6289
     16 C12        -3.1163   -5.2444   -1.2265 C.ar      1 <0>        -0.0353
     17 C13        -2.7278   -4.8310   -2.4870 C.ar      1 <0>        -0.1027
     18 C14        -3.3541   -5.3456   -3.6068 C.ar      1 <0>        -0.1289
     19 C15        -4.3686   -6.2740   -3.4660 C.ar      1 <0>        -0.0994
     20 C16        -4.7565   -6.6881   -2.2054 C.ar      1 <0>        -0.1215
     21 C17        -4.1273   -6.1766   -1.0858 C.ar      1 <0>        -0.0841
     22 C18        -5.0520   -6.8343   -4.6866 C.3       1 <0>        -0.0504
     23 C19        -4.8664   -8.3525   -4.7234 C.3       1 <0>        -0.1410
     24 C20        -6.5450   -6.5042   -4.6319 C.3       1 <0>        -0.1415
     25 C21        -3.9537   -2.6076    0.0152 C.1       1 <0>         0.2930
     26 N2         -4.9952   -2.1541    0.0237 N.1       1 <0>        -0.4830
     27 H2          1.0039    1.9031    0.0027 H         1 <0>         0.0679
     28 H3         -0.5459    1.8868   -0.8726 H         1 <0>         0.0601
     29 H4         -0.5289    1.8773    0.9072 H         1 <0>         0.0601
     30 H5          0.5123   -0.3556   -0.8948 H         1 <0>         0.0865
     31 H6          0.5293   -0.3651    0.8851 H         1 <0>         0.0866
     32 H7          1.0521   -7.1033    0.9848 H         1 <0>         0.0783
     33 H8          0.7563   -7.9141   -0.5728 H         1 <0>         0.0738
     34 H9          2.6367   -6.2706   -0.7111 H         1 <0>         0.0662
     35 H10         1.2819   -5.8279   -1.7810 H         1 <0>         0.0650
     36 H11         1.8258   -4.6932    1.0020 H         1 <0>         0.0809
     37 H12         2.0635   -3.8415   -0.5440 H         1 <0>         0.0780
     38 H13        -1.9352   -4.1057   -2.5971 H         1 <0>         0.1078
     39 H14        -3.0511   -5.0221   -4.5916 H         1 <0>         0.1063
     40 H15        -5.5493   -7.4131   -2.0954 H         1 <0>         0.1065
     41 H16        -4.4278   -6.5029   -0.1011 H         1 <0>         0.1095
     42 H17        -4.6150   -6.3930   -5.5824 H         1 <0>         0.0692
     43 H18        -5.3034   -8.7938   -3.8276 H         1 <0>         0.0554
     44 H19        -5.3607   -8.7578   -5.6063 H         1 <0>         0.0498
     45 H20        -3.8027   -8.5876   -4.7624 H         1 <0>         0.0546
     46 H21        -6.6773   -5.4226   -4.6057 H         1 <0>         0.0536
     47 H22        -7.0393   -6.9095   -5.5148 H         1 <0>         0.0504
     48 H23        -6.9820   -6.9455   -3.7361 H         1 <0>         0.0550
@<TRIPOS>BOND
     1    1    2 1
     2    1   27 1
     3    1   28 1
     4    1   29 1
     5    2    3 1
     6    2   30 1
     7    2   31 1
     8    3    4 1
     9    4   14 1
    10    4    5 2
    11    5    6 1
    12    5   25 1
    13    6    7 1
    14    6    8 1
    15    6   16 1
    16    8   13 1
    17    8    9 2
    18    9   10 1
    19    9   15 1
    20   10   11 1
    21   10   32 1
    22   10   33 1
    23   11   12 1
    24   11   34 1
    25   11   35 1
    26   12   13 1
    27   12   36 1
    28   12   37 1
    29   13   14 2
    30   16   21 ar
    31   16   17 ar
    32   17   18 ar
    33   17   38 1
    34   18   19 ar
    35   18   39 1
    36   19   20 ar
    37   19   22 1
    38   20   21 ar
    39   20   40 1
    40   21   41 1
    41   22   23 1
    42   22   24 1
    43   22   42 1
    44   23   43 1
    45   23   44 1
    46   23   45 1
    47   24   46 1
    48   24   47 1
    49   24   48 1
    50   25   26 3
@<TRIPOS>MOLECULE
ZINC66516018
   33    34     0     0     0
SMALL
USER_CHARGES

@<TRIPOS>ATOM
      1 C1         -0.0187    1.5258    0.0104 C.3       1 <0>        -0.1347
      2 C2          0.0021   -0.0041    0.0020 C.3       1 <0>        -0.0638
      3 C3         -1.4117   -0.5257    0.0127 C.2       1 <0>        -0.0766
      4 C4         -2.0544   -0.8751    1.1779 C.2       1 <0>        -0.1747
      5 C5         -3.3266   -1.3370    1.1153 C.2       1 <0>        -0.2765
      6 S1         -3.6942   -1.3132   -0.5237 S.3       1 <0>         0.2017
      7 C6         -2.1509   -0.6789   -1.1511 C.2       1 <0>        -0.1874
      8 C7         -1.7635   -0.3954   -2.5351 C.2       1 <0>         0.4539
      9 O1         -0.5276    0.0868   -2.8071 O.3       1 <0>        -0.5695
     10 C8         -2.6478   -0.6171   -3.5502 C.2       1 <0>        -0.8724
     11 C9         -3.9547   -1.1270   -3.2626 C.1       1 <0>         0.3106
     12 N1         -4.9914   -1.5315   -3.0345 N.1       1 <0>        -0.4942
     13 S2         -2.1818   -0.2761   -5.2149 S.o2      1 <0>         2.6066
     14 O2         -3.2341    0.4924   -5.7818 O.2       1 <0>        -0.9674
     15 O3         -0.8383    0.1848   -5.1742 O.2       1 <0>        -0.9016
     16 C10        -2.1610   -1.8135   -6.0754 C.ar      1 <0>        -0.6405
     17 C11        -3.0544   -2.0413   -7.1051 C.ar      1 <0>        -0.0083
     18 C12        -3.0380   -3.2484   -7.7807 C.ar      1 <0>        -0.0595
     19 C13        -2.1272   -4.2277   -7.4256 C.ar      1 <0>        -0.0580
     20 C14        -1.2341   -4.0000   -6.3961 C.ar      1 <0>        -0.1255
     21 C15        -1.2467   -2.7904   -5.7241 C.ar      1 <0>         0.0562
     22 Cl1        -0.1198   -2.5016   -4.4355 Cl        1 <0>        -0.0046
     23 Cl2        -4.1605   -3.5347   -9.0737 Cl        1 <0>        -0.0645
     24 H1          1.0039    1.9031    0.0027 H         1 <0>         0.0507
     25 H2         -0.5459    1.8868   -0.8726 H         1 <0>         0.0661
     26 H3         -0.5289    1.8773    0.9072 H         1 <0>         0.0393
     27 H4          0.5123   -0.3556   -0.8948 H         1 <0>         0.0974
     28 H5          0.5293   -0.3651    0.8851 H         1 <0>         0.0527
     29 H6         -1.5516   -0.7828    2.1292 H         1 <0>         0.1210
     30 H7         -3.9598   -1.6492    1.9326 H         1 <0>         0.1729
     31 H8         -3.7654   -1.2771   -7.3821 H         1 <0>         0.1582
     32 H9         -2.1147   -5.1702   -7.9528 H         1 <0>         0.1445
     33 H10        -0.5235   -4.7645   -6.1187 H         1 <0>         0.1477
@<TRIPOS>BOND
     1    1    2 1
     2    1   24 1
     3    1   25 1
     4    1   26 1
     5    2    3 1
     6    2   27 1
     7    2   28 1
     8    3    7 2
     9    3    4 1
    10    4    5 2
    11    4   29 1
    12    5    6 1
    13    5   30 1
    14    6    7 1
    15    7    8 1
    16    8    9 1
    17    8   10 2
    18   10   11 1
    19   10   13 1
    20   11   12 3
    21   13   14 2
    22   13   15 2
    23   13   16 1
    24   16   21 ar
    25   16   17 ar
    26   17   18 ar
    27   17   31 1
    28   18   19 ar
    29   18   23 1
    30   19   20 ar
    31   19   32 1
    32   20   21 ar
    33   20   33 1
    34   21   22 1
@<TRIPOS>MOLECULE
ZINC03102938
   39    42     0     0     0
SMALL
USER_CHARGES
2-[[2-(4-chlorophenyl)benzooxazol-6-yl]iminomethyl]-4-nitro-phenol
@<TRIPOS>ATOM
      1 C1          5.4088    3.7226   -0.0343 C.ar      1 <0>        -0.0734
      2 C2          6.7879    3.7254   -0.0419 C.ar      1 <0>        -0.1110
      3 C3          7.4856    2.5291   -0.0550 C.ar      1 <0>        -0.0193
      4 C4          6.8040    1.3234   -0.0542 C.ar      1 <0>        -0.1121
      5 C5          5.4250    1.3076   -0.0413 C.ar      1 <0>        -0.0567
      6 C6          4.7161    2.5104   -0.0286 C.ar      1 <0>        -0.0119
      7 C7          3.2387    2.5004   -0.0153 C.2       1 <0>         0.2611
      8 N1          2.4955    1.4225   -0.0138 N.2       1 <0>        -0.4530
      9 C8          1.1899    1.7914    0.0003 C.ar      1 <0>        -0.0086
     10 C9         -0.0126    1.0758    0.0080 C.ar      1 <0>        -0.0370
     11 C10        -1.2024    1.7408    0.0172 C.ar      1 <0>        -0.1620
     12 C11        -1.2320    3.1418    0.0306 C.ar      1 <0>         0.1525
     13 C12        -0.0410    3.8678    0.0227 C.ar      1 <0>        -0.1061
     14 C13         1.1685    3.1974    0.0076 C.ar      1 <0>         0.0416
     15 O1          2.4595    3.5988   -0.0024 O.3       1 <0>        -0.2083
     16 N2         -2.4310    3.7986    0.0455 N.2       1 <0>        -0.4625
     17 C14        -3.3943    3.4155   -0.7458 C.2       1 <0>         0.2452
     18 C15        -4.6836    4.1217   -0.7297 C.ar      1 <0>        -0.2343
     19 C16        -5.7197    3.7144   -1.5766 C.ar      1 <0>         0.0375
     20 C17        -6.9256    4.3808   -1.5557 C.ar      1 <0>        -0.1790
     21 C18        -7.1171    5.4531   -0.6996 C.ar      1 <0>        -0.0124
     22 C19        -6.1026    5.8661    0.1422 C.ar      1 <0>        -0.2360
     23 C20        -4.8845    5.2050    0.1394 C.ar      1 <0>         0.3230
     24 N3         -8.0216    3.9488   -2.4519 N.pl3     1 <0>         0.0670
     25 O2         -7.8564    3.0063   -3.2054 O.2       1 <0>        -0.2229
     26 O3         -9.0887    4.5359   -2.4357 O.3       1 <0>        -0.2208
     27 Cl1         9.2214    2.5408   -0.0718 Cl        1 <0>        -0.0641
     28 H1          4.8658    4.6562   -0.0290 H         1 <0>         0.1438
     29 H2          7.3249    4.6624   -0.0419 H         1 <0>         0.1426
     30 H3          7.3535    0.3937   -0.0641 H         1 <0>         0.1435
     31 H4          4.8946    0.3669   -0.0415 H         1 <0>         0.1498
     32 H5          0.0021   -0.0041    0.0020 H         1 <0>         0.1355
     33 H6         -2.1281    1.1844    0.0185 H         1 <0>         0.1369
     34 H7         -0.0633    4.9475    0.0287 H         1 <0>         0.1415
     35 H8         -3.2449    2.5793   -1.4128 H         1 <0>         0.0957
     36 H9         -5.5747    2.8793   -2.2459 H         1 <0>         0.1317
     37 H10        -8.0658    5.9691   -0.6899 H         1 <0>         0.1270
     38 H11        -6.2602    6.7031    0.8063 H         1 <0>         0.1242
     39 O4         -3.8890    5.6064    0.9699 O.3       1 <0>        -0.6088
@<TRIPOS>BOND
     1    1    6 ar
     2    1    2 ar
     3    1   28 1
     4    2    3 ar
     5    2   29 1
     6    3    4 ar
     7    3   27 1
     8    4    5 ar
     9    4   30 1
    10    5    6 ar
    11    5   31 1
    12    6    7 1
    13    7   15 1
    14    7    8 2
    15    8    9 1
    16    9   14 ar
    17    9   10 ar
    18   10   11 ar
    19   10   32 1
    20   11   12 ar
    21   11   33 1
    22   12   13 ar
    23   12   16 1
    24   13   14 ar
    25   13   34 1
    26   14   15 1
    27   16   17 2
    28   17   18 1
    29   17   35 1
    30   18   23 ar
    31   18   19 ar
    32   19   20 ar
    33   19   36 1
    34   20   21 ar
    35   20   24 1
    36   21   22 ar
    37   21   37 1
    38   22   23 ar
    39   22   38 1
    40   23   39 1
    41   24   25 2
    42   24   26 1
@<TRIPOS>MOLECULE
ZINC06615992
   55    58     0     0     0
SMALL
USER_CHARGES
4-benzyl-2-nitro-6-[[2-(1-piperidyl)phenyl]iminomethyl]phenol
@<TRIPOS>ATOM
      1 C1          4.2665    0.9935   -4.1550 C.ar      1 <0>        -0.1332
      2 C2          4.5574    2.0247   -3.2816 C.ar      1 <0>        -0.1208
      3 C3          3.9875    2.0454   -2.0224 C.ar      1 <0>        -0.1171
      4 C4          3.1268    1.0349   -1.6365 C.ar      1 <0>        -0.0647
      5 C5          2.8400    0.0009   -2.5080 C.ar      1 <0>        -0.1164
      6 C6          3.4058   -0.0170   -3.7692 C.ar      1 <0>        -0.1190
      7 C7          2.5059    1.0572   -0.2636 C.3       1 <0>        -0.0178
      8 C8          1.1995    1.8067   -0.3152 C.ar      1 <0>        -0.2227
      9 C9          1.1801    3.1674   -0.0956 C.ar      1 <0>         0.0079
     10 C10        -0.0315    3.8636   -0.1437 C.ar      1 <0>        -0.2087
     11 C11        -1.2199    3.1684   -0.4160 C.ar      1 <0>         0.3262
     12 C12        -1.1797    1.8017   -0.6393 C.ar      1 <0>        -0.1950
     13 C13         0.0241    1.1253   -0.5835 C.ar      1 <0>         0.0236
     14 N1         -2.4289    1.0638   -0.9324 N.pl3     1 <0>         0.0677
     15 O1         -2.3954   -0.1385   -1.1242 O.2       1 <0>        -0.2705
     16 O2         -3.4905    1.6590   -0.9818 O.3       1 <0>        -0.1625
     17 C14        -0.0604    5.3151    0.0899 C.2       1 <0>         0.2173
     18 N2         -1.1923    5.9603    0.0441 N.2       1 <0>        -0.4217
     19 C15        -1.2074    7.3234    0.1548 C.ar      1 <0>         0.1339
     20 C16        -0.3338    8.0995   -0.6088 C.ar      1 <0>        -0.1668
     21 C17        -0.3543    9.4740   -0.4930 C.ar      1 <0>        -0.1032
     22 C18        -1.2382   10.0888    0.3774 C.ar      1 <0>        -0.1444
     23 C19        -2.1089    9.3328    1.1392 C.ar      1 <0>        -0.1346
     24 C20        -2.1051    7.9501    1.0322 C.ar      1 <0>         0.0857
     25 N3         -2.9867    7.1857    1.7968 N.pl3     1 <0>        -0.4793
     26 C21        -4.3803    7.4590    1.4232 C.3       1 <0>         0.0731
     27 C22        -5.3084    6.5024    2.1754 C.3       1 <0>        -0.1183
     28 C23        -5.1175    6.6935    3.6825 C.3       1 <0>        -0.1171
     29 C24        -3.6481    6.4503    4.0378 C.3       1 <0>        -0.1168
     30 C25        -2.7681    7.4084    3.2317 C.3       1 <0>         0.0657
     31 H1          4.7120    0.9771   -5.1387 H         1 <0>         0.1156
     32 H2          5.2302    2.8140   -3.5829 H         1 <0>         0.1169
     33 H3          4.2151    2.8509   -1.3398 H         1 <0>         0.1192
     34 H4          2.1710   -0.7909   -2.2050 H         1 <0>         0.1203
     35 H5          3.1788   -0.8229   -4.4514 H         1 <0>         0.1177
     36 H6          3.1820    1.5531    0.4329 H         1 <0>         0.0741
     37 H7          2.3256    0.0354    0.0703 H         1 <0>         0.0728
     38 H8          2.0991    3.6947    0.1137 H         1 <0>         0.1134
     39 H9          0.0491    0.0592   -0.7546 H         1 <0>         0.1209
     40 H10         0.8561    5.8467    0.2995 H         1 <0>         0.0861
     41 H11         0.3569    7.6245   -1.2897 H         1 <0>         0.1208
     42 H12         0.3221   10.0733   -1.0844 H         1 <0>         0.1175
     43 H13        -1.2475   11.1654    0.4614 H         1 <0>         0.1150
     44 H14        -2.7960    9.8196    1.8154 H         1 <0>         0.1153
     45 H15        -4.6310    8.4874    1.6830 H         1 <0>         0.0248
     46 H16        -4.5034    7.3154    0.3498 H         1 <0>         0.0763
     47 H17        -5.0674    5.4742    1.9055 H         1 <0>         0.0816
     48 H18        -6.3439    6.7152    1.9098 H         1 <0>         0.0631
     49 H19        -5.7449    5.9840    4.2220 H         1 <0>         0.0615
     50 H20        -5.3956    7.7105    3.9589 H         1 <0>         0.0528
     51 H21        -3.3810    5.4213    3.7973 H         1 <0>         0.0751
     52 H22        -3.4972    6.6266    5.1029 H         1 <0>         0.0617
     53 H23        -1.7203    7.2281    3.4718 H         1 <0>         0.0677
     54 H24        -3.0265    8.4371    3.4831 H         1 <0>         0.0279
     55 O3         -2.4023    3.8329   -0.4660 O.3       1 <0>        -0.5682
@<TRIPOS>BOND
     1    1    6 ar
     2    1    2 ar
     3    1   31 1
     4    2    3 ar
     5    2   32 1
     6    3    4 ar
     7    3   33 1
     8    4    5 ar
     9    4    7 1
    10    5    6 ar
    11    5   34 1
    12    6   35 1
    13    7    8 1
    14    7   36 1
    15    7   37 1
    16    8   13 ar
    17    8    9 ar
    18    9   10 ar
    19    9   38 1
    20   10   11 ar
    21   10   17 1
    22   11   12 ar
    23   11   55 1
    24   12   13 ar
    25   12   14 1
    26   13   39 1
    27   14   15 2
    28   14   16 1
    29   17   18 2
    30   17   40 1
    31   18   19 1
    32   19   24 ar
    33   19   20 ar
    34   20   21 ar
    35   20   41 1
    36   21   22 ar
    37   21   42 1
    38   22   23 ar
    39   22   43 1
    40   23   24 ar
    41   23   44 1
    42   24   25 1
    43   25   30 1
    44   25   26 1
    45   26   27 1
    46   26   45 1
    47   26   46 1
    48   27   28 1
    49   27   47 1
    50   27   48 1
    51   28   29 1
    52   28   49 1
    53   28   50 1
    54   29   30 1
    55   29   51 1
    56   29   52 1
    57   30   53 1
    58   30   54 1
@<TRIPOS>MOLECULE
ZINC27516825
   55    59     0     0     0
SMALL
USER_CHARGES
(4-isopentyloxyphenyl)-methyl-BLAHone
@<TRIPOS>ATOM
      1 C1          7.4736    5.3065    0.2686 C.3       1 <0>        -0.1452
      2 C2          6.4392    6.4196    0.4463 C.3       1 <0>        -0.0930
      3 H1          6.3848    6.7090    1.5061 H         1 <0>         0.0703
      4 C3          6.8509    7.6350   -0.3897 C.3       1 <0>        -0.1077
      5 C4          5.9574    8.8232   -0.0051 C.3       1 <0>        -0.0204
      6 C5          4.5334    8.3593    0.0046 C.2       1 <0>        -0.2294
      7 C6          4.0869    7.0850    0.0032 C.2       1 <0>        -0.0129
      8 C7          2.6377    6.8904    0.0130 C.2       1 <0>        -0.2706
      9 C8          1.8641    8.0484    0.0243 C.2       1 <0>         0.1908
     10 S1          3.0661    9.3534    0.0202 S.3       1 <0>         0.0624
     11 N1          0.4968    8.0016    0.0356 N.2       1 <0>        -0.5938
     12 C9         -0.1559    6.8229    0.0365 C.2       1 <0>         0.6638
     13 O1         -1.3720    6.8147    0.0471 O.3       1 <0>        -0.5550
     14 N2          0.5103    5.6571    0.0255 N.pl3     1 <0>        -0.3736
     15 C10         1.8745    5.6190    0.0131 C.2       1 <0>         0.3753
     16 N3          2.2486    4.3578    0.0035 N.2       1 <0>        -0.5541
     17 C11         1.1649    3.5701    0.0096 C.2       1 <0>         0.2646
     18 N4          0.0833    4.3194    0.0178 N.2       1 <0>        -0.3085
     19 C12         1.1817    2.0866    0.0020 C.ar      1 <0>        -0.0343
     20 C13        -0.0166    1.3747    0.0096 C.ar      1 <0>        -0.0459
     21 C14         0.0021   -0.0041    0.0020 C.ar      1 <0>        -0.1561
     22 C15         1.2130   -0.6832   -0.0137 C.ar      1 <0>         0.1355
     23 C16         2.4082    0.0232   -0.0208 C.ar      1 <0>        -0.2144
     24 C17         2.3958    1.4021   -0.0128 C.ar      1 <0>        -0.0362
     25 O2          1.2283   -2.0417   -0.0215 O.3       1 <0>        -0.3159
     26 C18         2.5087   -2.6759   -0.0376 C.3       1 <0>         0.0545
     27 C19         2.3254   -4.1949   -0.0445 C.3       1 <0>        -0.1153
     28 C20         3.6964   -4.8740   -0.0617 C.3       1 <0>        -0.0939
     29 C21         4.4367   -4.5615    1.2403 C.3       1 <0>        -0.1554
     30 C22         3.5143   -6.3873   -0.1943 C.3       1 <0>        -0.1481
     31 C23         5.0684    5.9165   -0.0077 C.3       1 <0>        -0.0527
     32 H2          8.4602    5.6673    0.5949 H         1 <0>         0.0513
     33 H3          7.5215    5.0163   -0.7913 H         1 <0>         0.0536
     34 H4          7.1828    4.4357    0.8745 H         1 <0>         0.0543
     35 H5          7.9043    7.8791   -0.1877 H         1 <0>         0.0652
     36 H6          6.7263    7.4044   -1.4580 H         1 <0>         0.0649
     37 H7          6.2415    9.1876    0.9931 H         1 <0>         0.0706
     38 H8          6.0852    9.6312   -0.7405 H         1 <0>         0.0709
     39 H9         -0.9589    1.9025    0.0169 H         1 <0>         0.1393
     40 H10        -0.9261   -0.5562    0.0079 H         1 <0>         0.1333
     41 H11         3.3486   -0.5077   -0.0323 H         1 <0>         0.1293
     42 H12         3.3258    1.9511   -0.0180 H         1 <0>         0.1386
     43 H13         3.0586   -2.3688   -0.9394 H         1 <0>         0.0624
     44 H14         3.0762   -2.3791    0.8568 H         1 <0>         0.0656
     45 H15         1.7754   -4.5019    0.8573 H         1 <0>         0.0743
     46 H16         1.7579   -4.4917   -0.9389 H         1 <0>         0.0740
     47 H17         4.2808   -4.4989   -0.9148 H         1 <0>         0.0733
     48 H18         5.4223   -5.0497    1.2279 H         1 <0>         0.0566
     49 H19         3.8524   -4.9366    2.0934 H         1 <0>         0.0573
     50 H20         4.5676   -3.4735    1.3356 H         1 <0>         0.0577
     51 H21         4.4999   -6.8755   -0.2067 H         1 <0>         0.0568
     52 H22         2.9821   -6.6119   -1.1304 H         1 <0>         0.0561
     53 H23         2.9300   -6.7624    0.6588 H         1 <0>         0.0563
     54 H24         5.1472    5.5055   -1.0250 H         1 <0>         0.0720
     55 H25         4.7202    5.1310    0.6791 H         1 <0>         0.0815
@<TRIPOS>BOND
     1    1    2 1
     2    1   32 1
     3    1   33 1
     4    1   34 1
     5    2    3 1
     6    2   31 1
     7    2    4 1
     8    4    5 1
     9    4   35 1
    10    4   36 1
    11    5    6 1
    12    5   37 1
    13    5   38 1
    14    6   10 1
    15    6    7 2
    16    7    8 1
    17    7   31 1
    18    8   15 1
    19    8    9 2
    20    9   10 1
    21    9   11 1
    22   11   12 2
    23   12   13 1
    24   12   14 1
    25   14   18 1
    26   14   15 1
    27   15   16 2
    28   16   17 1
    29   17   18 2
    30   17   19 1
    31   19   24 ar
    32   19   20 ar
    33   20   21 ar
    34   20   39 1
    35   21   22 ar
    36   21   40 1
    37   22   23 ar
    38   22   25 1
    39   23   24 ar
    40   23   41 1
    41   24   42 1
    42   25   26 1
    43   26   27 1
    44   26   43 1
    45   26   44 1
    46   27   28 1
    47   27   45 1
    48   27   46 1
    49   28   29 1
    50   28   30 1
    51   28   47 1
    52   29   48 1
    53   29   49 1
    54   29   50 1
    55   30   51 1
    56   30   52 1
    57   30   53 1
    58   31   54 1
    59   31   55 1
@<TRIPOS>MOLECULE
ZINC39670353
   35    37     0     0     0
SMALL
USER_CHARGES

@<TRIPOS>ATOM
      1 C1         -0.0169    1.3947    0.0097 C.ar      1 <0>        -0.0411
      2 C2          1.1688    2.0968    0.0022 C.ar      1 <0>        -0.1603
      3 C3          2.3789    1.4198   -0.0135 C.ar      1 <0>         0.1258
      4 C4          2.4048    0.0334   -0.0216 C.ar      1 <0>        -0.1543
      5 C5          1.2263   -0.6808   -0.0138 C.ar      1 <0>        -0.0539
      6 C6          0.0021   -0.0041    0.0020 C.ar      1 <0>        -0.0606
      7 C7         -1.2597   -0.7600    0.0105 C.2       1 <0>         0.1612
      8 N1         -2.4697   -0.2718    0.0194 N.2       1 <0>        -0.3045
      9 N2         -3.4387   -1.2697    0.0257 N.2       1 <0>        -0.3032
     10 C8         -2.9266   -2.4573    0.0213 C.2       1 <0>         0.1011
     11 C9         -1.4230   -2.2671    0.0040 C.3       1 <0>        -0.0735
     12 H1         -0.9898   -2.6966   -0.8993 H         1 <0>         0.1525
     13 C10        -0.7994   -2.8742    1.2343 C.2       1 <0>         0.0586
     14 N3          0.1497   -3.7253    1.1173 N.2       1 <0>        -0.1946
     15 N4          0.7294   -4.2897    2.2611 N.pl3     1 <0>        -0.5671
     16 C11         1.7621   -5.2157    2.1338 C.ar      1 <0>         0.2577
     17 C12         2.1389   -6.0203    3.2114 C.ar      1 <0>        -0.1072
     18 C13         3.1762   -6.9334    3.0408 C.ar      1 <0>         0.1464
     19 N5          3.8004   -7.0391    1.8705 N.ar      1 <0>        -0.4325
     20 C14         3.4683   -6.2951    0.8373 C.ar      1 <0>         0.2040
     21 C15         2.4415   -5.3665    0.9264 C.ar      1 <0>        -0.1193
     22 Cl1         2.0117   -4.3986   -0.4492 Cl        1 <0>        -0.0252
     23 Cl2         4.3238   -6.4827   -0.6615 Cl        1 <0>        -0.0185
     24 C16         3.5880   -7.7928    4.1701 C.2       1 <0>         0.5310
     25 O1          3.0185   -7.7002    5.2481 O.co2     1 <0>        -0.6463
     26 O2          4.4982   -8.5965    4.0265 O.co2     1 <0>        -0.6457
     27 Cl3         1.3270   -5.8839    4.7398 Cl        1 <0>        -0.0068
     28 F1          3.5379    2.1141   -0.0213 F         1 <0>        -0.1328
     29 H2         -0.9587    1.9231    0.0260 H         1 <0>         0.1465
     30 H3          1.1556    3.1767    0.0081 H         1 <0>         0.1440
     31 H4          3.3506   -0.4878   -0.0346 H         1 <0>         0.1452
     32 H5          1.2478   -1.7606   -0.0201 H         1 <0>         0.1427
     33 H6         -3.4622   -3.3952    0.0244 H         1 <0>         0.2091
     34 H7         -1.1533   -2.5913    2.2147 H         1 <0>         0.1205
     35 H8          0.4116   -4.0356    3.1416 H         1 <0>         0.4009
@<TRIPOS>BOND
     1    1    6 ar
     2    1    2 ar
     3    1   29 1
     4    2    3 ar
     5    2   30 1
     6    3    4 ar
     7    3   28 1
     8    4    5 ar
     9    4   31 1
    10    5    6 ar
    11    5   32 1
    12    6    7 1
    13    7   11 1
    14    7    8 2
    15    8    9 1
    16    9   10 2
    17   10   11 1
    18   10   33 1
    19   11   12 1
    20   11   13 1
    21   13   14 2
    22   13   34 1
    23   14   15 1
    24   15   16 1
    25   15   35 1
    26   16   21 ar
    27   16   17 ar
    28   17   18 ar
    29   17   27 1
    30   18   19 ar
    31   18   24 1
    32   19   20 ar
    33   20   21 ar
    34   20   23 1
    35   21   22 1
    36   24   25 2
    37   24   26 1
@<TRIPOS>MOLECULE
ZINC59476422
   45    48     0     0     0
SMALL
USER_CHARGES

@<TRIPOS>ATOM
      1 C1         -0.4227    1.4593   -0.2373 C.3       1 <0>        -0.1179
      2 C2         -0.1909   -0.0249   -0.1166 C.ar      1 <0>        -0.0613
      3 C3          0.7906   -0.6330   -0.8793 C.ar      1 <0>        -0.1293
      4 C4          1.0082   -1.9910   -0.7732 C.ar      1 <0>        -0.0592
      5 C5          0.2357   -2.7520    0.1059 C.ar      1 <0>        -0.0315
      6 C6         -0.7525   -2.1324    0.8722 C.ar      1 <0>        -0.0416
      7 C7         -0.9564   -0.7723    0.7604 C.ar      1 <0>        -0.1252
      8 C8         -1.5912   -2.9460    1.8239 C.3       1 <0>        -0.1204
      9 C9          0.4631   -4.2077    0.2244 C.2       1 <0>         0.2844
     10 N1          0.5918   -5.0311   -0.7846 N.2       1 <0>        -0.4611
     11 C10         0.7877   -6.2857   -0.3021 C.ar      1 <0>         0.0395
     12 C11         0.9818   -7.5279   -0.9063 C.ar      1 <0>        -0.0624
     13 C12         1.1581   -8.6576   -0.1135 C.ar      1 <0>         0.1135
     14 C13         1.1404   -8.5455    1.2828 C.ar      1 <0>        -0.1318
     15 C14         0.9486   -7.3204    1.8797 C.ar      1 <0>        -0.0765
     16 C15         0.7719   -6.1858    1.0996 C.ar      1 <0>        -0.0146
     17 O1          0.5737   -4.8793    1.3859 O.3       1 <0>        -0.2084
     18 N2          1.3487   -9.8804   -0.6987 N.2       1 <0>        -0.4570
     19 C16         2.2809  -10.6767   -0.2559 C.2       1 <0>         0.2359
     20 C17         2.4856  -11.9902   -0.8845 C.ar      1 <0>        -0.2313
     21 C18         3.4807  -12.8504   -0.4090 C.ar      1 <0>         0.0346
     22 C19         3.6665  -14.0799   -1.0027 C.ar      1 <0>        -0.1854
     23 C20         2.8723  -14.4685   -2.0692 C.ar      1 <0>        -0.0128
     24 C21         1.8861  -13.6287   -2.5493 C.ar      1 <0>        -0.2377
     25 C22         1.6801  -12.3908   -1.9612 C.ar      1 <0>         0.3221
     26 O2          0.7074  -11.5675   -2.4282 O.3       1 <0>        -0.6099
     27 N3          4.7199  -14.9896   -0.4988 N.pl3     1 <0>         0.0724
     28 O3          5.4148  -14.6531    0.4316 O.2       1 <0>        -0.2223
     29 O4          4.8853  -16.0690   -1.0176 O.3       1 <0>        -0.2198
     30 H1          0.2099    1.9852    0.4777 H         1 <0>         0.0742
     31 H2         -0.1764    1.7845   -1.2481 H         1 <0>         0.0697
     32 H3         -1.4692    1.6817   -0.0289 H         1 <0>         0.0688
     33 H4          1.3873   -0.0432   -1.5593 H         1 <0>         0.1317
     34 H5          1.7743   -2.4645   -1.3693 H         1 <0>         0.1344
     35 H6         -1.7180   -0.2908    1.3558 H         1 <0>         0.1305
     36 H7         -1.0635   -3.0544    2.7715 H         1 <0>         0.0796
     37 H8         -2.5420   -2.4407    1.9933 H         1 <0>         0.0730
     38 H9         -1.7745   -3.9312    1.3954 H         1 <0>         0.0670
     39 H10         0.9947   -7.6123   -1.9829 H         1 <0>         0.1413
     40 H11         1.2778   -9.4251    1.8941 H         1 <0>         0.1393
     41 H12         0.9354   -7.2415    2.9567 H         1 <0>         0.1337
     42 H13         2.9028  -10.3718    0.5727 H         1 <0>         0.0924
     43 H14         4.1026  -12.5513    0.4217 H         1 <0>         0.1303
     44 H15         3.0255  -15.4339   -2.5285 H         1 <0>         0.1259
     45 H16         1.2716  -13.9393   -3.3814 H         1 <0>         0.1232
@<TRIPOS>BOND
     1    1    2 1
     2    1   30 1
     3    1   31 1
     4    1   32 1
     5    2    7 ar
     6    2    3 ar
     7    3    4 ar
     8    3   33 1
     9    4    5 ar
    10    4   34 1
    11    5    6 ar
    12    5    9 1
    13    6    7 ar
    14    6    8 1
    15    7   35 1
    16    8   36 1
    17    8   37 1
    18    8   38 1
    19    9   17 1
    20    9   10 2
    21   10   11 1
    22   11   16 ar
    23   11   12 ar
    24   12   13 ar
    25   12   39 1
    26   13   14 ar
    27   13   18 1
    28   14   15 ar
    29   14   40 1
    30   15   16 ar
    31   15   41 1
    32   16   17 1
    33   18   19 2
    34   19   20 1
    35   19   42 1
    36   20   25 ar
    37   20   21 ar
    38   21   22 ar
    39   21   43 1
    40   22   23 ar
    41   22   27 1
    42   23   24 ar
    43   23   44 1
    44   24   25 ar
    45   24   45 1
    46   25   26 1
    47   27   28 2
    48   27   29 1
@<TRIPOS>MOLECULE
ZINC04755775
   53    56     0     0     0
SMALL
USER_CHARGES
(4R)-2-(benzylamino)-6-oxo-N,4-diphenyl-cyclohexene-1-carbothioamide
@<TRIPOS>ATOM
      1 C1         -4.0331    8.8878    1.1048 C.ar      1 <0>        -0.1351
      2 C2         -2.6862    8.7514    1.3844 C.ar      1 <0>        -0.1220
      3 C3         -1.9972    7.6387    0.9396 C.ar      1 <0>        -0.1064
      4 C4         -2.6549    6.6625    0.2148 C.ar      1 <0>        -0.0383
      5 C5         -4.0005    6.8016   -0.0697 C.ar      1 <0>        -0.1120
      6 C6         -4.6909    7.9116    0.3799 C.ar      1 <0>        -0.1248
      7 C7         -1.9036    5.4496   -0.2705 C.3       1 <0>         0.0961
      8 N1         -1.9705    4.3953    0.7444 N.2       1 <0>        -0.6403
      9 C8         -1.2786    3.2508    0.5742 C.2       1 <0>         0.2770
     10 C9         -1.2569    2.3097    1.5847 C.2       1 <0>        -0.4755
     11 C10        -0.5429    1.0975    1.4394 C.2       1 <0>         0.4090
     12 O1         -0.5371    0.2876    2.3439 O.3       1 <0>        -0.5589
     13 C11         0.2100    0.8047    0.1673 C.3       1 <0>        -0.1425
     14 C12        -0.4808    1.5112   -1.0025 C.3       1 <0>        -0.0325
     15 H1         -1.4969    1.1127   -1.1393 H         1 <0>         0.0793
     16 C13        -0.5381    3.0138   -0.7155 C.3       1 <0>        -0.1068
     17 C14         0.2992    1.2694   -2.2690 C.ar      1 <0>        -0.0663
     18 C15         1.6132    1.6885   -2.3622 C.ar      1 <0>        -0.1138
     19 C16         2.3301    1.4628   -3.5224 C.ar      1 <0>        -0.1195
     20 C17         1.7301    0.8265   -4.5928 C.ar      1 <0>        -0.1320
     21 C18         0.4146    0.4116   -4.5014 C.ar      1 <0>        -0.1212
     22 C19        -0.3009    0.6335   -3.3397 C.ar      1 <0>        -0.1187
     23 C20        -1.9868    2.5724    2.8320 C.2       1 <0>         0.5441
     24 S1         -1.1538    3.1770    4.2001 S.2       1 <0>        -0.6607
     25 N2         -3.3122    2.3376    2.8995 N.pl3     1 <0>        -0.6116
     26 C21        -4.0233    2.6715    4.0560 C.ar      1 <0>         0.1264
     27 C22        -3.5152    2.3401    5.3056 C.ar      1 <0>        -0.0673
     28 C23        -4.2174    2.6765    6.4462 C.ar      1 <0>        -0.1224
     29 C24        -5.4306    3.3324    6.3449 C.ar      1 <0>        -0.1266
     30 C25        -5.9421    3.6586    5.1022 C.ar      1 <0>        -0.1265
     31 C26        -5.2422    3.3302    3.9578 C.ar      1 <0>        -0.1245
     32 H2         -4.5716    9.7568    1.4529 H         1 <0>         0.1135
     33 H3         -2.1724    9.5141    1.9507 H         1 <0>         0.1150
     34 H4         -0.9449    7.5321    1.1580 H         1 <0>         0.1154
     35 H5         -4.5134    6.0411   -0.6398 H         1 <0>         0.1127
     36 H6         -5.7432    8.0180    0.1618 H         1 <0>         0.1136
     37 H7         -2.3563    5.0878   -1.2055 H         1 <0>         0.0352
     38 H8         -0.8523    5.7178   -0.4519 H         1 <0>         0.0362
     39 H9          1.2433    1.1703    0.2604 H         1 <0>         0.0818
     40 H10         0.2198   -0.2806   -0.0115 H         1 <0>         0.0745
     41 H11        -1.0609    3.5244   -1.5376 H         1 <0>         0.0669
     42 H12         0.4845    3.4098   -0.6293 H         1 <0>         0.0749
     43 H13         2.0808    2.1893   -1.5273 H         1 <0>         0.1227
     44 H14         3.3579    1.7866   -3.5937 H         1 <0>         0.1184
     45 H15         2.2891    0.6531   -5.5005 H         1 <0>         0.1162
     46 H16        -0.0542   -0.0855   -5.3378 H         1 <0>         0.1174
     47 H17        -1.3288    0.3097   -3.2684 H         1 <0>         0.1199
     48 H18        -3.8345    1.8832    2.0447 H         1 <0>         0.4253
     49 H19        -2.5698    1.8240    5.3852 H         1 <0>         0.1459
     50 H20        -3.8207    2.4231    7.4182 H         1 <0>         0.1194
     51 H21        -5.9797    3.5906    7.2383 H         1 <0>         0.1148
     52 H22        -6.8897    4.1712    5.0266 H         1 <0>         0.1169
     53 H23        -5.6424    3.5850    2.9876 H         1 <0>         0.1179
@<TRIPOS>BOND
     1    1    6 ar
     2    1    2 ar
     3    1   32 1
     4    2    3 ar
     5    2   33 1
     6    3    4 ar
     7    3   34 1
     8    4    5 ar
     9    4    7 1
    10    5    6 ar
    11    5   35 1
    12    6   36 1
    13    7    8 1
    14    7   37 1
    15    7   38 1
    16    8    9 2
    17    9   16 1
    18    9   10 1
    19   10   11 2
    20   10   23 1
    21   11   12 1
    22   11   13 1
    23   13   14 1
    24   13   39 1
    25   13   40 1
    26   14   15 1
    27   14   16 1
    28   14   17 1
    29   16   41 1
    30   16   42 1
    31   17   22 ar
    32   17   18 ar
    33   18   19 ar
    34   18   43 1
    35   19   20 ar
    36   19   44 1
    37   20   21 ar
    38   20   45 1
    39   21   22 ar
    40   21   46 1
    41   22   47 1
    42   23   24 2
    43   23   25 1
    44   25   26 1
    45   25   48 1
    46   26   31 ar
    47   26   27 ar
    48   27   28 ar
    49   27   49 1
    50   28   29 ar
    51   28   50 1
    52   29   30 ar
    53   29   51 1
    54   30   31 ar
    55   30   52 1
    56   31   53 1
@<TRIPOS>MOLECULE
ZINC33421109
   52    52     0     0     0
SMALL
USER_CHARGES
(Z)-4-(cyclododecylamino)-2,3-dimethyl-4-oxo-but-2-enoic acid
@<TRIPOS>ATOM
      1 C1          3.8282    2.6262   -0.0795 C.3       1 <0>        -0.0982
      2 C2          3.8268    1.9163   -1.4088 C.2       1 <0>        -0.2230
      3 C3          4.9622    1.3811   -1.8852 C.2       1 <0>        -0.0411
      4 C4          6.2622    1.5987   -1.1547 C.3       1 <0>        -0.1118
      5 C5          4.9371    0.5800   -3.1238 C.2       1 <0>         0.5050
      6 O1          4.9121   -0.6327   -3.0622 O.co2     1 <0>        -0.6367
      7 O2          4.9420    1.1938   -4.3234 O.co2     1 <0>        -0.7453
      8 C6          2.5765    1.8094   -2.1875 C.2       1 <0>         0.5443
      9 O3          2.5529    1.1567   -3.2124 O.2       1 <0>        -0.4895
     10 N1          1.4617    2.4356   -1.7616 N.am      1 <0>        -0.7322
     11 C7          0.2214    2.3296   -2.5340 C.3       1 <0>         0.1334
     12 C8         -0.8642    1.6852   -1.6696 C.3       1 <0>        -0.1259
     13 C9         -0.2519    1.2143   -0.3489 C.3       1 <0>        -0.1452
     14 C10        -1.0518    1.7940    0.8194 C.3       1 <0>        -0.1194
     15 C11        -0.1035    2.5181    1.7772 C.3       1 <0>        -0.1258
     16 C12        -0.6070    3.9435    2.0129 C.3       1 <0>        -0.1224
     17 C13         0.5184    4.9372    1.7183 C.3       1 <0>        -0.1261
     18 C14         0.0254    5.9841    0.7174 C.3       1 <0>        -0.1223
     19 C15         0.9918    6.0525   -0.4668 C.3       1 <0>        -0.1256
     20 C16         0.2129    5.8752   -1.7717 C.3       1 <0>        -0.1194
     21 C17         0.8433    4.7487   -2.5929 C.3       1 <0>        -0.1451
     22 C18        -0.2318    3.7258   -2.9652 C.3       1 <0>        -0.1257
     23 H1          2.8152    2.9942    0.1407 H         1 <0>         0.0488
     24 H2          4.5265    3.4752   -0.1180 H         1 <0>         0.0639
     25 H3          4.1439    1.9273    0.7091 H         1 <0>         0.0645
     26 H4          7.0747    1.0878   -1.6921 H         1 <0>         0.0655
     27 H5          6.1831    1.1910   -0.1361 H         1 <0>         0.0696
     28 H6          6.4776    2.6761   -1.1027 H         1 <0>         0.0715
     29 H7          1.4831    3.0263   -0.8339 H         1 <0>         0.4080
     30 H8          0.4389    1.7045   -3.4126 H         1 <0>         0.1001
     31 H9         -1.6552    2.4217   -1.4650 H         1 <0>         0.0670
     32 H10        -1.2939    0.8240   -2.2022 H         1 <0>         0.0614
     33 H11        -0.2797    0.1156   -0.3030 H         1 <0>         0.0549
     34 H12         0.7912    1.5576   -0.2853 H         1 <0>         0.0941
     35 H13        -1.7985    2.5047    0.4356 H         1 <0>         0.0642
     36 H14        -1.5619    0.9795    1.3545 H         1 <0>         0.0532
     37 H15        -0.0677    1.9788    2.7352 H         1 <0>         0.0569
     38 H16         0.9046    2.5532    1.3384 H         1 <0>         0.0669
     39 H17        -1.4588    4.1463    1.3471 H         1 <0>         0.0671
     40 H18        -0.9264    4.0511    3.0600 H         1 <0>         0.0549
     41 H19         0.8209    5.4356    2.6511 H         1 <0>         0.0570
     42 H20         1.3795    4.4006    1.2934 H         1 <0>         0.0680
     43 H21        -0.9759    5.7046    0.3578 H         1 <0>         0.0670
     44 H22        -0.0226    6.9671    1.2087 H         1 <0>         0.0549
     45 H23         1.4974    7.0294   -0.4714 H         1 <0>         0.0569
     46 H24         1.7410    5.2523   -0.3754 H         1 <0>         0.0668
     47 H25        -0.8327    5.6213   -1.5430 H         1 <0>         0.0639
     48 H26         0.2452    6.8115   -2.3481 H         1 <0>         0.0533
     49 H27         1.2852    5.1663   -3.5096 H         1 <0>         0.0559
     50 H28         1.6276    4.2566   -1.9990 H         1 <0>         0.0939
     51 H29        -0.3902    3.7400   -4.0536 H         1 <0>         0.0618
     52 H30        -1.1723    3.9800   -2.4545 H         1 <0>         0.0666
@<TRIPOS>BOND
     1    1    2 1
     2    1   23 1
     3    1   24 1
     4    1   25 1
     5    2    3 2
     6    2    8 1
     7    3    4 1
     8    3    5 1
     9    4   26 1
    10    4   27 1
    11    4   28 1
    12    5    6 2
    13    5    7 1
    14    8    9 2
    15    8   10 am
    16   10   11 1
    17   10   29 1
    18   11   22 1
    19   11   12 1
    20   11   30 1
    21   12   13 1
    22   12   31 1
    23   12   32 1
    24   13   14 1
    25   13   33 1
    26   13   34 1
    27   14   15 1
    28   14   35 1
    29   14   36 1
    30   15   16 1
    31   15   37 1
    32   15   38 1
    33   16   17 1
    34   16   39 1
    35   16   40 1
    36   17   18 1
    37   17   41 1
    38   17   42 1
    39   18   19 1
    40   18   43 1
    41   18   44 1
    42   19   20 1
    43   19   45 1
    44   19   46 1
    45   20   21 1
    46   20   47 1
    47   20   48 1
    48   21   22 1
    49   21   49 1
    50   21   50 1
    51   22   51 1
    52   22   52 1
@<TRIPOS>MOLECULE
ZINC43226256
   46    48     0     0     0
SMALL
USER_CHARGES

@<TRIPOS>ATOM
      1 C1          0.0556    1.1127    0.4035 C.3       1 <0>        -0.1384
      2 C2          0.1319   -0.3884    0.1173 C.3       1 <0>        -0.0540
      3 C3          0.9838   -1.0695    1.1903 C.3       1 <0>        -0.1376
      4 C4         -1.2779   -0.9827    0.1322 C.3       1 <0>        -0.1341
      5 C5          0.7660   -0.6140   -1.2567 C.3       1 <0>        -0.0257
      6 C6          2.1546   -0.0287   -1.2713 C.2       1 <0>         0.1230
      7 C7          2.4894    1.2946   -1.6348 C.2       1 <0>        -0.2330
      8 C8          3.8759    1.4147   -1.5080 C.2       1 <0>         0.1246
      9 N1          4.3400    0.2097   -1.0864 N.pl3     1 <0>        -0.3381
     10 N2          3.2503   -0.6564   -0.9451 N.2       1 <0>        -0.2987
     11 C9          5.6800   -0.1099   -0.8319 C.ar      1 <0>         0.1379
     12 C10         6.6633    0.2310   -1.7510 C.ar      1 <0>        -0.0924
     13 C11         7.9837   -0.0849   -1.4973 C.ar      1 <0>        -0.1122
     14 C12         8.3283   -0.7406   -0.3293 C.ar      1 <0>        -0.0988
     15 C13         7.3531   -1.0823    0.5891 C.ar      1 <0>        -0.1447
     16 C14         6.0294   -0.7641    0.3445 C.ar      1 <0>         0.1035
     17 F1          5.0768   -1.0933    1.2442 F         1 <0>        -0.1238
     18 C15         4.6825    2.6210   -1.7807 C.ar      1 <0>        -0.0076
     19 C16         5.5278    3.1371   -0.7961 C.ar      1 <0>        -0.1028
     20 C17         6.2788    4.2640   -1.0578 C.ar      1 <0>        -0.1311
     21 C18         6.1961    4.8831   -2.2926 C.ar      1 <0>        -0.1166
     22 C19         5.3603    4.3775   -3.2726 C.ar      1 <0>        -0.1257
     23 C20         4.6079    3.2479   -3.0265 C.ar      1 <0>        -0.0348
     24 C21         1.5584    2.3435   -2.0646 C.2       1 <0>         0.5507
     25 O1          0.3595    2.1066   -2.1345 O.co2     1 <0>        -0.6778
     26 O2          1.9804    3.4556   -2.3534 O.co2     1 <0>        -0.6839
     27 H1          1.0600    1.5361    0.3929 H         1 <0>         0.0478
     28 H2         -0.5513    1.5979   -0.3609 H         1 <0>         0.0924
     29 H3         -0.3961    1.2734    1.3824 H         1 <0>         0.0283
     30 H4          0.5320   -0.9087    2.1691 H         1 <0>         0.0440
     31 H5          1.0381   -2.1389    0.9864 H         1 <0>         0.0470
     32 H6          1.9882   -0.6461    1.1797 H         1 <0>         0.0552
     33 H7         -1.8848   -0.4974   -0.6322 H         1 <0>         0.0592
     34 H8         -1.2236   -2.0521   -0.0717 H         1 <0>         0.0473
     35 H9         -1.7297   -0.8219    1.1110 H         1 <0>         0.0494
     36 H10         0.8204   -1.6834   -1.4605 H         1 <0>         0.0601
     37 H11         0.1591   -0.1288   -2.0211 H         1 <0>         0.1076
     38 H12         6.3958    0.7424   -2.6638 H         1 <0>         0.1365
     39 H13         8.7484    0.1804   -2.2123 H         1 <0>         0.1358
     40 H14         9.3617   -0.9867   -0.1345 H         1 <0>         0.1353
     41 H15         7.6256   -1.5943    1.5002 H         1 <0>         0.1398
     42 H16         5.5931    2.6551    0.1682 H         1 <0>         0.1087
     43 H17         6.9327    4.6644   -0.2972 H         1 <0>         0.1168
     44 H18         6.7863    5.7652   -2.4922 H         1 <0>         0.1163
     45 H19         5.3000    4.8661   -4.2339 H         1 <0>         0.1204
     46 H20         3.9593    2.8517   -3.7938 H         1 <0>         0.1244
@<TRIPOS>BOND
     1    1    2 1
     2    1   27 1
     3    1   28 1
     4    1   29 1
     5    2    3 1
     6    2    4 1
     7    2    5 1
     8    3   30 1
     9    3   31 1
    10    3   32 1
    11    4   33 1
    12    4   34 1
    13    4   35 1
    14    5    6 1
    15    5   36 1
    16    5   37 1
    17    6   10 2
    18    6    7 1
    19    7    8 2
    20    7   24 1
    21    8    9 1
    22    8   18 1
    23    9   10 1
    24    9   11 1
    25   11   16 ar
    26   11   12 ar
    27   12   13 ar
    28   12   38 1
    29   13   14 ar
    30   13   39 1
    31   14   15 ar
    32   14   40 1
    33   15   16 ar
    34   15   41 1
    35   16   17 1
    36   18   23 ar
    37   18   19 ar
    38   19   20 ar
    39   19   42 1
    40   20   21 ar
    41   20   43 1
    42   21   22 ar
    43   21   44 1
    44   22   23 ar
    45   22   45 1
    46   23   46 1
    47   24   25 2
    48   24   26 1
@<TRIPOS>MOLECULE
ZINC05827734
   40    42     0     0     0
SMALL
USER_CHARGES

@<TRIPOS>ATOM
      1 C1         -1.6579    1.3759    0.1598 C.3       1 <0>        -0.1074
      2 C2         -1.5270   -0.1254    0.1507 C.2       1 <0>         0.1409
      3 C3         -1.1934   -0.7758    1.2741 C.2       1 <0>        -0.0781
      4 N1         -1.0753   -2.1300    1.2659 N.2       1 <0>        -0.4761
      5 C4         -0.7491   -2.7661    2.3646 C.2       1 <0>         0.4999
      6 N2         -0.5164   -4.0690    2.8153 N.2       1 <0>        -0.6319
      7 C5         -0.1862   -4.1955    4.1300 C.2       1 <0>         0.5572
      8 S1         -0.3612   -2.4268    4.0663 S.3       1 <0>        -0.6100
      9 N3          0.1250   -5.1763    5.0328 N.2       1 <0>        -0.5551
     10 C6          0.2328   -4.8669    6.3916 C.ar      1 <0>         0.1649
     11 C7         -0.3825   -3.7287    6.8973 C.ar      1 <0>        -0.1926
     12 C8         -0.2744   -3.4261    8.2404 C.ar      1 <0>        -0.0930
     13 C9          0.4453   -4.2548    9.0817 C.ar      1 <0>        -0.1752
     14 C10         1.0594   -5.3884    8.5815 C.ar      1 <0>        -0.1002
     15 C11         0.9506   -5.6999    7.2405 C.ar      1 <0>        -0.1416
     16 N4         -1.7520   -0.8347   -1.0215 N.pl3     1 <0>        -0.7329
     17 C12        -2.1166   -0.1238   -2.2494 C.3       1 <0>         0.1691
     18 C13        -2.3033   -1.1163   -3.3680 C.ar      1 <0>        -0.0996
     19 C14        -1.2287   -1.4727   -4.1616 C.ar      1 <0>        -0.0647
     20 C15        -1.3979   -2.3830   -5.1875 C.ar      1 <0>        -0.1430
     21 C16        -2.6443   -2.9387   -5.4210 C.ar      1 <0>         0.1135
     22 C17        -3.7207   -2.5812   -4.6254 C.ar      1 <0>        -0.0758
     23 C18        -3.5473   -1.6737   -3.5959 C.ar      1 <0>        -0.0622
     24 Cl1        -5.2846   -3.2766   -4.9161 Cl        1 <0>        -0.0488
     25 F1         -2.8108   -3.8284   -6.4239 F         1 <0>        -0.1267
     26 H1         -0.6951    1.8260   -0.0822 H         1 <0>         0.0709
     27 H2         -2.3977    1.6806   -0.5803 H         1 <0>         0.0658
     28 H3         -1.9755    1.7069    1.1486 H         1 <0>         0.0746
     29 H4         -1.0184   -0.2240    2.1859 H         1 <0>         0.0978
     30 H5         -0.9444   -3.0809    6.2407 H         1 <0>         0.1267
     31 H6         -0.7522   -2.5412    8.6341 H         1 <0>         0.1100
     32 H7          0.5283   -4.0158   10.1316 H         1 <0>         0.1099
     33 H8          1.6211   -6.0332    9.2412 H         1 <0>         0.1149
     34 H9          1.4264   -6.5879    6.8514 H         1 <0>         0.1201
     35 H10        -1.6677   -1.8011   -1.0274 H         1 <0>         0.4110
     36 H11        -3.0458    0.4233   -2.0902 H         1 <0>         0.0658
     37 H12        -1.3236    0.5760   -2.5132 H         1 <0>         0.0672
     38 H13        -0.2564   -1.0391   -3.9799 H         1 <0>         0.1423
     39 H14        -0.5581   -2.6607   -5.8072 H         1 <0>         0.1469
     40 H15        -4.3850   -1.3979   -2.9725 H         1 <0>         0.1453
@<TRIPOS>BOND
     1    1    2 1
     2    1   26 1
     3    1   27 1
     4    1   28 1
     5    2    3 2
     6    2   16 1
     7    3    4 1
     8    3   29 1
     9    4    5 2
    10    5    8 1
    11    5    6 1
    12    6    7 2
    13    7    8 1
    14    7    9 1
    15    9   10 1
    16   10   15 ar
    17   10   11 ar
    18   11   12 ar
    19   11   30 1
    20   12   13 ar
    21   12   31 1
    22   13   14 ar
    23   13   32 1
    24   14   15 ar
    25   14   33 1
    26   15   34 1
    27   16   17 1
    28   16   35 1
    29   17   18 1
    30   17   36 1
    31   17   37 1
    32   18   23 ar
    33   18   19 ar
    34   19   20 ar
    35   19   38 1
    36   20   21 ar
    37   20   39 1
    38   21   22 ar
    39   21   25 1
    40   22   23 ar
    41   22   24 1
    42   23   40 1
@<TRIPOS>MOLECULE
ZINC05376653
   41    44     0     0     0
SMALL
USER_CHARGES

@<TRIPOS>ATOM
      1 C1         -1.3444    1.0691    0.3445 C.3       1 <0>         0.0790
      2 N1         -0.6280   -0.1949    0.1564 N.pl3     1 <0>        -0.4809
      3 C2         -0.7959   -1.0296   -0.8996 C.2       1 <0>         0.1500
      4 C3          0.0251   -2.1150   -0.7638 C.2       1 <0>        -0.1775
      5 C4          0.7653   -1.9228    0.4980 C.ar      1 <0>        -0.0754
      6 C5          0.3169   -0.7010    1.0255 C.ar      1 <0>         0.0843
      7 C6          0.8452   -0.2425    2.2276 C.ar      1 <0>        -0.1249
      8 C7          1.8014   -0.9850    2.8863 C.ar      1 <0>        -0.1122
      9 C8          2.2457   -2.1897    2.3619 C.ar      1 <0>        -0.1463
     10 C9          1.7289   -2.6643    1.1756 C.ar      1 <0>        -0.0769
     11 C10         0.1451   -3.2430   -1.6863 C.2       1 <0>         0.0497
     12 C11        -0.0082   -3.0470   -3.0251 C.2       1 <0>        -0.2236
     13 C12        -0.1484   -1.7897   -3.7871 C.2       1 <0>         0.5342
     14 O1         -0.1390   -0.6992   -3.2365 O.2       1 <0>        -0.5360
     15 N2         -0.2835   -1.9066   -5.0903 N.2       1 <0>        -0.7127
     16 C13        -0.2949   -3.0813   -5.6995 C.2       1 <0>         0.4635
     17 S1         -0.0886   -4.2395   -4.3556 S.3       1 <0>        -0.1290
     18 N3         -0.4272   -3.3454   -7.0398 N.2       1 <0>        -0.5783
     19 C14        -0.3761   -2.3000   -7.9666 C.ar      1 <0>         0.2187
     20 C15         0.2932   -1.1237   -7.6530 C.ar      1 <0>        -0.1611
     21 C16         0.3418   -0.0931   -8.5707 C.ar      1 <0>        -0.0766
     22 C17        -0.2751   -0.2308   -9.8009 C.ar      1 <0>        -0.1789
     23 C18        -0.9425   -1.4000  -10.1160 C.ar      1 <0>        -0.0624
     24 C19        -0.9896   -2.4372   -9.2050 C.ar      1 <0>        -0.2211
     25 C20        -1.7110   -3.7140   -9.5522 C.3       1 <0>         0.5230
     26 F1         -2.2421   -3.6135  -10.8425 F         1 <0>        -0.1957
     27 F2         -0.8136   -4.7859   -9.4994 F         1 <0>        -0.1751
     28 F3         -2.7471   -3.9278   -8.6368 F         1 <0>        -0.1779
     29 H1         -0.7833    1.8779   -0.1235 H         1 <0>         0.0707
     30 H2         -2.3312    0.9991   -0.1132 H         1 <0>         0.0837
     31 H3         -1.4518    1.2707    1.4103 H         1 <0>         0.0781
     32 H4         -1.4750   -0.8626   -1.7226 H         1 <0>         0.1814
     33 H5          0.5067    0.6946    2.6442 H         1 <0>         0.1148
     34 H6          2.2089   -0.6251    3.8195 H         1 <0>         0.1206
     35 H7          2.9957   -2.7612    2.8884 H         1 <0>         0.1196
     36 H8          2.0771   -3.6021    0.7687 H         1 <0>         0.1211
     37 H9          0.3554   -4.2317   -1.3059 H         1 <0>         0.1279
     38 H10         0.7748   -1.0153   -6.6924 H         1 <0>         0.1445
     39 H11         0.8616    0.8218   -8.3274 H         1 <0>         0.1154
     40 H12        -0.2356    0.5768  -10.5169 H         1 <0>         0.1175
     41 H13        -1.4234   -1.5043  -11.0774 H         1 <0>         0.1251
@<TRIPOS>BOND
     1    1    2 1
     2    1   29 1
     3    1   30 1
     4    1   31 1
     5    2    6 1
     6    2    3 1
     7    3    4 2
     8    3   32 1
     9    4    5 1
    10    4   11 1
    11    5   10 ar
    12    5    6 ar
    13    6    7 ar
    14    7    8 ar
    15    7   33 1
    16    8    9 ar
    17    8   34 1
    18    9   10 ar
    19    9   35 1
    20   10   36 1
    21   11   12 2
    22   11   37 1
    23   12   17 1
    24   12   13 1
    25   13   14 2
    26   13   15 1
    27   15   16 2
    28   16   17 1
    29   16   18 1
    30   18   19 1
    31   19   24 ar
    32   19   20 ar
    33   20   21 ar
    34   20   38 1
    35   21   22 ar
    36   21   39 1
    37   22   23 ar
    38   22   40 1
    39   23   24 ar
    40   23   41 1
    41   24   25 1
    42   25   26 1
    43   25   27 1
    44   25   28 1
@<TRIPOS>MOLECULE
ZINC13804248
   42    45     0     0     0
SMALL
USER_CHARGES

@<TRIPOS>ATOM
      1 C1         -0.8185    1.5263    0.0272 C.3       1 <0>         0.0683
      2 N1         -1.2410    0.1260   -0.0550 N.pl3     1 <0>        -0.4673
      3 C2         -1.0023   -0.6950   -1.1103 C.2       1 <0>         0.1248
      4 C3         -1.5298   -1.9306   -0.8605 C.2       1 <0>        -0.1983
      5 C4         -2.1505   -1.8574    0.4759 C.ar      1 <0>        -0.0753
      6 C5         -1.9326   -0.5469    0.9313 C.ar      1 <0>         0.0873
      7 C6         -2.4067   -0.1727    2.1842 C.ar      1 <0>        -0.1193
      8 C7         -3.0800   -1.0866    2.9658 C.ar      1 <0>        -0.0975
      9 C8         -3.2911   -2.3816    2.5158 C.ar      1 <0>        -0.1305
     10 C9         -2.8362   -2.7689    1.2739 C.ar      1 <0>        -0.0765
     11 C10        -1.4874   -3.0963   -1.7441 C.2       1 <0>         0.1464
     12 C11        -1.1929   -2.9397   -3.0637 C.2       1 <0>        -0.2581
     13 C12        -0.9896   -3.9323   -4.0677 C.2       1 <0>         0.5658
     14 O1         -1.0715   -5.1175   -3.7992 O.2       1 <0>        -0.4896
     15 N2         -0.7106   -3.5340   -5.2967 N.am      1 <0>        -0.6504
     16 C13        -0.6217   -2.1871   -5.5850 C.2       1 <0>         0.4271
     17 N3         -0.3573   -1.6053   -6.7342 N.2       1 <0>        -0.4831
     18 C14        -0.2268   -0.2448   -6.7981 C.ar      1 <0>         0.1596
     19 C15         0.6529    0.4171   -5.9379 C.ar      1 <0>        -0.1492
     20 C16         0.7793    1.7886   -6.0079 C.ar      1 <0>        -0.0670
     21 C17         0.0369    2.5092   -6.9271 C.ar      1 <0>        -0.1273
     22 C18        -0.8362    1.8604   -7.7821 C.ar      1 <0>        -0.0561
     23 C19        -0.9682    0.4883   -7.7275 C.ar      1 <0>        -0.1780
     24 C20        -1.9151   -0.2173   -8.6638 C.3       1 <0>         0.5144
     25 F1         -2.5372    0.7221   -9.4931 F         1 <0>        -0.1787
     26 F2         -1.2019   -1.1311   -9.4470 F         1 <0>        -0.1674
     27 F3         -2.8853   -0.8979   -7.9203 F         1 <0>        -0.1765
     28 S1         -0.9657   -1.4356   -4.0014 S.3       1 <0>        -0.0437
     29 H1          0.1755    1.5805    0.4711 H         1 <0>         0.0788
     30 H2         -0.7935    1.9576   -0.9736 H         1 <0>         0.0903
     31 H3         -1.5232    2.0828    0.6451 H         1 <0>         0.0889
     32 H4         -0.4757   -0.4138   -2.0103 H         1 <0>         0.1804
     33 H5         -2.2471    0.8328    2.5444 H         1 <0>         0.1231
     34 H6         -3.4464   -0.7918    3.9380 H         1 <0>         0.1301
     35 H7         -3.8200   -3.0876    3.1389 H         1 <0>         0.1289
     36 H8         -3.0009   -3.7781    0.9262 H         1 <0>         0.1283
     37 H9         -1.6898   -4.0809   -1.3491 H         1 <0>         0.1619
     38 H10        -0.5678   -4.1894   -5.9973 H         1 <0>         0.4256
     39 H11         1.2322   -0.1440   -5.2196 H         1 <0>         0.1376
     40 H12         1.4589    2.3015   -5.3435 H         1 <0>         0.1378
     41 H13         0.1394    3.5832   -6.9771 H         1 <0>         0.1392
     42 H14        -1.4124    2.4290   -8.4970 H         1 <0>         0.1451
@<TRIPOS>BOND
     1    1    2 1
     2    1   29 1
     3    1   30 1
     4    1   31 1
     5    2    6 1
     6    2    3 1
     7    3    4 2
     8    3   32 1
     9    4    5 1
    10    4   11 1
    11    5   10 ar
    12    5    6 ar
    13    6    7 ar
    14    7    8 ar
    15    7   33 1
    16    8    9 ar
    17    8   34 1
    18    9   10 ar
    19    9   35 1
    20   10   36 1
    21   11   12 2
    22   11   37 1
    23   12   28 1
    24   12   13 1
    25   13   14 2
    26   13   15 am
    27   15   16 1
    28   15   38 1
    29   16   17 2
    30   16   28 1
    31   17   18 1
    32   18   23 ar
    33   18   19 ar
    34   19   20 ar
    35   19   39 1
    36   20   21 ar
    37   20   40 1
    38   21   22 ar
    39   21   41 1
    40   22   23 ar
    41   22   42 1
    42   23   24 1
    43   24   25 1
    44   24   26 1
    45   24   27 1
@<TRIPOS>MOLECULE
ZINC21060549
   33    34     0     0     0
SMALL
USER_CHARGES
2,4-dichloro-6-[[(3-ethylphenyl)amino]methyl]phenol
@<TRIPOS>ATOM
      1 C1         -2.2469    0.8586   -6.4725 C.3       1 <0>        -0.1467
      2 C2         -1.1840    1.8796   -6.0619 C.3       1 <0>        -0.0836
      3 C3         -0.4563    1.3830   -4.8392 C.ar      1 <0>        -0.0362
      4 C4          0.6778    0.6038   -4.9794 C.ar      1 <0>        -0.1998
      5 C5          1.3483    0.1458   -3.8603 C.ar      1 <0>        -0.0681
      6 C6          0.8869    0.4648   -2.5981 C.ar      1 <0>        -0.2137
      7 C7         -0.2517    1.2470   -2.4537 C.ar      1 <0>         0.2407
      8 C8         -0.9257    1.7016   -3.5803 C.ar      1 <0>        -0.2062
      9 N1         -0.7213    1.5711   -1.1789 N.pl3     1 <0>        -0.7316
     10 C9         -0.0127    1.0858    0.0080 C.3       1 <0>         0.2072
     11 C10        -0.7181    1.5718    1.2479 C.ar      1 <0>        -0.2492
     12 C11        -0.2334    2.6694    1.9336 C.ar      1 <0>        -0.0306
     13 C12        -0.8804    3.1166    3.0716 C.ar      1 <0>        -0.1660
     14 C13        -2.0142    2.4662    3.5262 C.ar      1 <0>        -0.0436
     15 C14        -2.5020    1.3678    2.8436 C.ar      1 <0>        -0.1666
     16 C15        -1.8569    0.9214    1.6980 C.ar      1 <0>         0.2965
     17 O1         -2.3382   -0.1551    1.0215 O.3       1 <0>        -0.6768
     18 Cl1        -3.9246    0.5523    3.4134 Cl        1 <0>        -0.1002
     19 Cl2        -0.2694    4.4960    3.9305 Cl        1 <0>        -0.1164
     20 H1         -2.7781    1.2211   -7.3650 H         1 <0>         0.0527
     21 H2         -2.9634    0.7239   -5.6488 H         1 <0>         0.0572
     22 H3         -1.7634   -0.1031   -6.6989 H         1 <0>         0.0551
     23 H4         -0.4675    2.0143   -6.8856 H         1 <0>         0.0670
     24 H5         -1.6675    2.8414   -5.8355 H         1 <0>         0.0674
     25 H6          1.0403    0.3523   -5.9651 H         1 <0>         0.1079
     26 H7          2.2335   -0.4625   -3.9732 H         1 <0>         0.1122
     27 H8          1.4107    0.1061   -1.7243 H         1 <0>         0.1158
     28 H9         -1.8139    2.3064   -3.4716 H         1 <0>         0.1132
     29 H10        -1.6232    2.1907   -1.0660 H         1 <0>         0.4163
     30 H11         0.0022   -0.0141    0.0019 H         1 <0>         0.0614
     31 H12         1.0193    1.4665    0.0002 H         1 <0>         0.0438
     32 H13         0.6510    3.1787    1.5805 H         1 <0>         0.1084
     33 H14        -2.5179    2.8169    4.4148 H         1 <0>         0.1125
@<TRIPOS>BOND
     1    1    2 1
     2    1   20 1
     3    1   21 1
     4    1   22 1
     5    2    3 1
     6    2   23 1
     7    2   24 1
     8    3    8 ar
     9    3    4 ar
    10    4    5 ar
    11    4   25 1
    12    5    6 ar
    13    5   26 1
    14    6    7 ar
    15    6   27 1
    16    7    8 ar
    17    7    9 1
    18    8   28 1
    19    9   10 1
    20    9   29 1
    21   10   11 1
    22   10   30 1
    23   10   31 1
    24   11   16 ar
    25   11   12 ar
    26   12   13 ar
    27   12   32 1
    28   13   14 ar
    29   13   19 1
    30   14   15 ar
    31   14   33 1
    32   15   16 ar
    33   15   18 1
    34   16   17 1
@<TRIPOS>MOLECULE
ZINC03299741
   35    37     0     0     0
SMALL
USER_CHARGES
(5Z)-4-benzyl-5-benzylimino-1,3,4-thiadiazolidine-2-thione
@<TRIPOS>ATOM
      1 C1          3.9896    2.9397   -0.0202 C.ar      1 <0>        -0.1267
      2 C2          3.3297    2.7069   -1.2124 C.ar      1 <0>        -0.1252
      3 C3          2.0330    2.2281   -1.2026 C.ar      1 <0>        -0.1025
      4 C4          1.3960    1.9824   -0.0006 C.ar      1 <0>        -0.0660
      5 C5          2.0539    2.2206    1.1916 C.ar      1 <0>        -0.1075
      6 C6          3.3525    2.6945    1.1817 C.ar      1 <0>        -0.1207
      7 C7         -0.0178    1.4608    0.0101 C.3       1 <0>         0.1106
      8 N1          0.0021   -0.0041    0.0020 N.2       1 <0>        -0.5794
      9 C8         -0.5438   -0.6683    0.9808 C.2       1 <0>         0.4068
     10 N2         -0.6380   -2.0352    1.1614 N.pl3     1 <0>        -0.4259
     11 N3         -1.2656   -2.5032    2.2935 N.2       1 <0>        -0.3278
     12 C9         -1.7775   -1.6220    3.1823 C.2       1 <0>         0.2910
     13 S1         -2.6038   -1.9334    4.6490 S.3       1 <0>        -0.6533
     14 S2         -1.3732   -0.0513    2.4366 S.3       1 <0>        -0.2092
     15 C10        -0.0798   -2.9631    0.1746 C.3       1 <0>         0.1887
     16 C11         1.3508   -3.2748    0.5312 C.ar      1 <0>        -0.1016
     17 C12         2.3746   -2.4948    0.0268 C.ar      1 <0>        -0.0910
     18 C13         3.6865   -2.7775    0.3582 C.ar      1 <0>        -0.1293
     19 C14         3.9755   -3.8469    1.1851 C.ar      1 <0>        -0.1209
     20 C15         2.9521   -4.6304    1.6849 C.ar      1 <0>        -0.1292
     21 C16         1.6398   -4.3442    1.3581 C.ar      1 <0>        -0.0921
     22 H1          5.0028    3.3135   -0.0279 H         1 <0>         0.1166
     23 H2          3.8274    2.8989   -2.1515 H         1 <0>         0.1177
     24 H3          1.5175    2.0462   -2.1340 H         1 <0>         0.1202
     25 H4          1.5547    2.0328    2.1307 H         1 <0>         0.1188
     26 H5          3.8679    2.8767    2.1132 H         1 <0>         0.1183
     27 H6         -0.5326    1.8155    0.9151 H         1 <0>         0.0554
     28 H7         -0.5499    1.8252   -0.8810 H         1 <0>         0.0803
     29 H8         -0.6679   -3.8927    0.1717 H         1 <0>         0.0888
     30 H9         -0.1169   -2.5027   -0.8237 H         1 <0>         0.0941
     31 H10         2.1491   -1.6620   -0.6228 H         1 <0>         0.1276
     32 H11         4.4860   -2.1652   -0.0320 H         1 <0>         0.1162
     33 H12         5.0007   -4.0701    1.4410 H         1 <0>         0.1158
     34 H13         3.1778   -5.4659    2.3310 H         1 <0>         0.1184
     35 H14         0.8402   -4.9563    1.7486 H         1 <0>         0.1230
@<TRIPOS>BOND
     1    1    6 ar
     2    1    2 ar
     3    1   22 1
     4    2    3 ar
     5    2   23 1
     6    3    4 ar
     7    3   24 1
     8    4    5 ar
     9    4    7 1
    10    5    6 ar
    11    5   25 1
    12    6   26 1
    13    7    8 1
    14    7   27 1
    15    7   28 1
    16    8    9 2
    17    9   14 1
    18    9   10 1
    19   10   11 1
    20   10   15 1
    21   11   12 2
    22   12   13 1
    23   12   14 1
    24   15   16 1
    25   15   29 1
    26   15   30 1
    27   16   21 ar
    28   16   17 ar
    29   17   18 ar
    30   17   31 1
    31   18   19 ar
    32   18   32 1
    33   19   20 ar
    34   19   33 1
    35   20   21 ar
    36   20   34 1
    37   21   35 1
@<TRIPOS>MOLECULE
ZINC37528339
   30    31     0     0     0
SMALL
USER_CHARGES

@<TRIPOS>ATOM
      1 C1         -0.0167    1.3782    0.0096 C.ar      1 <0>        -0.1128
      2 C2          1.1706    2.0858    0.0021 C.ar      1 <0>        -0.1388
      3 C3          2.3780    1.4104   -0.0130 C.ar      1 <0>        -0.0356
      4 C4          2.3961    0.0270   -0.0206 C.ar      1 <0>        -0.1385
      5 C5          1.2082   -0.6795   -0.0130 C.ar      1 <0>        -0.0053
      6 C6          0.0021   -0.0041    0.0020 C.ar      1 <0>        -0.0676
      7 C7         -1.2928   -0.7750    0.0107 C.3       1 <0>        -0.0539
      8 C8         -1.7453   -1.0281   -1.4288 C.3       1 <0>        -0.1531
      9 H1         -1.8077   -0.0796   -1.9621 H         1 <0>         0.0670
     10 C9         -3.1198   -1.7001   -1.4206 C.3       1 <0>        -0.0124
     11 C10        -3.6199   -1.8381   -2.8355 C.2       1 <0>        -0.0817
     12 C11        -3.4466   -2.8625   -3.7056 C.2       1 <0>        -0.1119
     13 C12        -4.0026   -2.7713   -4.9682 C.2       1 <0>        -0.0916
     14 C13        -4.7049   -1.6589   -5.2982 C.2       1 <0>        -0.2008
     15 S1         -4.6007   -0.6979   -3.7973 S.3       1 <0>         0.0329
     16 Br1        -5.5750   -1.2384   -6.9236 Br        1 <0>         0.0099
     17 C14        -0.7508   -1.9270   -2.1172 C.2       1 <0>         0.4956
     18 O1         -1.1206   -2.6816   -3.0006 O.co2     1 <0>        -0.6816
     19 O2          0.4236   -1.8996   -1.7909 O.co2     1 <0>        -0.6817
     20 Cl1         3.8696    2.2984   -0.0231 Cl        1 <0>        -0.0988
     21 H2         -0.9592    1.9053    0.0259 H         1 <0>         0.1189
     22 H3          1.1558    3.1656    0.0076 H         1 <0>         0.1197
     23 H4          3.3383   -0.5007   -0.0327 H         1 <0>         0.1215
     24 H5          1.2222   -1.7594   -0.0193 H         1 <0>         0.1475
     25 H6         -1.1447   -1.7283    0.5180 H         1 <0>         0.0673
     26 H7         -2.0551   -0.1989    0.5352 H         1 <0>         0.0564
     27 H8         -3.0389   -2.6874   -0.9659 H         1 <0>         0.0824
     28 H9         -3.8183   -1.0916   -0.8461 H         1 <0>         0.0632
     29 H10        -2.8824   -3.7370   -3.4172 H         1 <0>         0.1533
     30 H11        -3.8792   -3.5734   -5.6809 H         1 <0>         0.1305
@<TRIPOS>BOND
     1    1    6 ar
     2    1    2 ar
     3    1   21 1
     4    2    3 ar
     5    2   22 1
     6    3    4 ar
     7    3   20 1
     8    4    5 ar
     9    4   23 1
    10    5    6 ar
    11    5   24 1
    12    6    7 1
    13    7    8 1
    14    7   25 1
    15    7   26 1
    16    8    9 1
    17    8   10 1
    18    8   17 1
    19   10   11 1
    20   10   27 1
    21   10   28 1
    22   11   15 1
    23   11   12 2
    24   12   13 1
    25   12   29 1
    26   13   14 2
    27   13   30 1
    28   14   15 1
    29   14   16 1
    30   17   18 2
    31   17   19 1
@<TRIPOS>MOLECULE
ZINC40942142
   43    45     0     0     0
SMALL
USER_CHARGES

@<TRIPOS>ATOM
      1 C1          0.3618    1.5441    0.2749 C.3       1 <0>        -0.1153
      2 C2          0.2559    0.0411    0.2450 C.ar      1 <0>        -0.0848
      3 C3         -0.1488   -0.6004   -0.9109 C.ar      1 <0>        -0.1176
      4 C4         -0.2459   -1.9788   -0.9384 C.ar      1 <0>        -0.0813
      5 C5          0.0621   -2.7162    0.1899 C.ar      1 <0>        -0.0924
      6 C6          0.4677   -2.0749    1.3451 C.ar      1 <0>        -0.0889
      7 C7          0.5689   -0.6963    1.3713 C.ar      1 <0>        -0.0922
      8 C8          1.0161    0.0027    2.6293 C.3       1 <0>        -0.1158
      9 C9         -0.0447   -4.2191    0.1602 C.3       1 <0>         0.1044
     10 O1          0.3233   -4.7481    1.4357 O.3       1 <0>        -0.3112
     11 C10         0.2810   -6.0972    1.5788 C.ar      1 <0>         0.1441
     12 C11        -0.1029   -6.8956    0.5069 C.ar      1 <0>        -0.2292
     13 C12        -0.1477   -8.2639    0.6460 C.ar      1 <0>        -0.0515
     14 C13         0.1944   -8.8525    1.8710 C.ar      1 <0>        -0.1118
     15 C14         0.5805   -8.0427    2.9477 C.ar      1 <0>         0.0213
     16 C15         0.6271   -6.6758    2.7950 C.ar      1 <0>        -0.1628
     17 C16         0.1482  -10.3100    2.0258 C.2       1 <0>         0.0374
     18 C17        -0.3421  -10.8580    3.1724 C.2       1 <0>        -0.1832
     19 C18        -1.0068  -10.2325    4.2714 C.2       1 <0>         0.4799
     20 O2         -1.2346   -8.8996    4.2758 O.3       1 <0>        -0.5665
     21 N1         -1.3861  -10.9737    5.2631 N.2       1 <0>        -0.6220
     22 C19        -1.1698  -12.3000    5.2782 C.2       1 <0>         0.3912
     23 S1         -1.5879  -13.4452    6.4801 S.2       1 <0>        -0.5290
     24 S2         -0.3396  -12.5618    3.7169 S.3       1 <0>        -0.1725
     25 C20        -0.6881   -2.6781   -2.1980 C.3       1 <0>        -0.1192
     26 H1          1.3644    1.8439   -0.0303 H         1 <0>         0.0693
     27 H2         -0.3699    1.9736   -0.4093 H         1 <0>         0.0647
     28 H3          0.1677    1.9020    1.2860 H         1 <0>         0.0685
     29 H4         -0.3895   -0.0244   -1.7922 H         1 <0>         0.1225
     30 H5          0.7080   -2.6508    2.2265 H         1 <0>         0.1338
     31 H6          0.1470    0.2338    3.2451 H         1 <0>         0.0701
     32 H7          1.6926   -0.6468    3.1848 H         1 <0>         0.0675
     33 H8          1.5322    0.9264    2.3678 H         1 <0>         0.0669
     34 H9         -1.0708   -4.5059   -0.0698 H         1 <0>         0.0754
     35 H10         0.6235   -4.6158   -0.6042 H         1 <0>         0.0749
     36 H11        -0.3667   -6.4409   -0.4365 H         1 <0>         0.1245
     37 H12        -0.4464   -8.8830   -0.1870 H         1 <0>         0.1252
     38 H13         0.8453   -8.4907    3.8941 H         1 <0>         0.1316
     39 H14         0.9290   -6.0510    3.6225 H         1 <0>         0.1283
     40 H15         0.5029  -10.9490    1.2306 H         1 <0>         0.1382
     41 H16         0.1836   -2.9095   -2.8102 H         1 <0>         0.0724
     42 H17        -1.2052   -3.6018   -1.9384 H         1 <0>         0.0668
     43 H18        -1.3623   -2.0288   -2.7564 H         1 <0>         0.0684
@<TRIPOS>BOND
     1    1    2 1
     2    1   26 1
     3    1   27 1
     4    1   28 1
     5    2    7 ar
     6    2    3 ar
     7    3    4 ar
     8    3   29 1
     9    4    5 ar
    10    4   25 1
    11    5    6 ar
    12    5    9 1
    13    6    7 ar
    14    6   30 1
    15    7    8 1
    16    8   31 1
    17    8   32 1
    18    8   33 1
    19    9   10 1
    20    9   34 1
    21    9   35 1
    22   10   11 1
    23   11   16 ar
    24   11   12 ar
    25   12   13 ar
    26   12   36 1
    27   13   14 ar
    28   13   37 1
    29   14   15 ar
    30   14   17 1
    31   15   16 ar
    32   15   38 1
    33   16   39 1
    34   17   18 2
    35   17   40 1
    36   18   24 1
    37   18   19 1
    38   19   20 1
    39   19   21 2
    40   21   22 1
    41   22   23 2
    42   22   24 1
    43   25   41 1
    44   25   42 1
    45   25   43 1
@<TRIPOS>MOLECULE
ZINC00243512
   38    40     0     0     0
SMALL
USER_CHARGES

@<TRIPOS>ATOM
      1 C1          2.0119    0.6681   -0.4938 C.3       1 <0>        -0.0813
      2 C2          0.9843   -0.4046   -0.2400 C.ar      1 <0>        -0.2274
      3 C3          0.0320   -0.6887   -1.2036 C.ar      1 <0>        -0.0613
      4 C4         -0.9154   -1.6712   -0.9819 C.ar      1 <0>        -0.2328
      5 C5         -0.9170   -2.3783    0.2085 C.ar      1 <0>         0.2996
      6 C6          0.0453   -2.0942    1.1870 C.ar      1 <0>        -0.1023
      7 C7          1.0001   -1.1033    0.9493 C.ar      1 <0>        -0.0805
      8 N1          0.0523   -2.7869    2.3660 N.2       1 <0>        -0.3558
      9 C8          0.1474   -2.1455    3.4997 C.2       1 <0>         0.0825
     10 C9          0.2743   -2.8910    4.7548 C.ar      1 <0>        -0.0542
     11 C10         0.3759   -2.1891    6.0346 C.ar      1 <0>        -0.0258
     12 C11         0.3551   -0.7917    6.1044 C.ar      1 <0>        -0.1011
     13 C12         0.4520   -0.1757    7.3171 C.ar      1 <0>        -0.1205
     14 C13         0.5715   -0.9188    8.4886 C.ar      1 <0>        -0.1249
     15 C14         0.5954   -2.2802    8.4560 C.ar      1 <0>        -0.1051
     16 C15         0.4972   -2.9478    7.2236 C.ar      1 <0>        -0.0594
     17 C16         0.5169   -4.3527    7.1515 C.ar      1 <0>        -0.1045
     18 C17         0.4211   -4.9900    5.9553 C.ar      1 <0>        -0.1318
     19 C18         0.2951   -4.2881    4.7568 C.ar      1 <0>         0.1329
     20 O1          0.1965   -4.9656    3.5858 O.3       1 <0>        -0.4604
     21 O2         -1.8479   -3.3436    0.4272 O.3       1 <0>        -0.6902
     22 C19        -1.9481   -1.9723   -2.0373 C.3       1 <0>        -0.0740
     23 H1          2.8858    0.2278   -0.9740 H         1 <0>         0.0435
     24 H2          1.5863    1.4322   -1.1443 H         1 <0>         0.0472
     25 H3          2.3067    1.1201    0.4532 H         1 <0>         0.0447
     26 H4          0.0287   -0.1397   -2.1336 H         1 <0>         0.0937
     27 H5          1.7475   -0.8819    1.6968 H         1 <0>         0.0921
     28 H6          0.1326   -1.0657    3.5121 H         1 <0>         0.0900
     29 H7          0.2632   -0.2043    5.2028 H         1 <0>         0.1286
     30 H8          0.4362    0.9029    7.3697 H         1 <0>         0.1209
     31 H9          0.6468   -0.4080    9.4372 H         1 <0>         0.1188
     32 H10         0.6893   -2.8436    9.3726 H         1 <0>         0.1239
     33 H11         0.6098   -4.9318    8.0583 H         1 <0>         0.1253
     34 H12         0.4391   -6.0696    5.9324 H         1 <0>         0.1266
     35 H13         1.0475   -5.1490    3.1647 H         1 <0>         0.3842
     36 H14        -1.5690   -2.7443   -2.7068 H         1 <0>         0.0420
     37 H15        -2.8636   -2.3225   -1.5604 H         1 <0>         0.0594
     38 H16        -2.1588   -1.0679   -2.6080 H         1 <0>         0.0372
@<TRIPOS>BOND
     1    1    2 1
     2    1   23 1
     3    1   24 1
     4    1   25 1
     5    2    7 ar
     6    2    3 ar
     7    3    4 ar
     8    3   26 1
     9    4    5 ar
    10    4   22 1
    11    5    6 ar
    12    5   21 1
    13    6    7 ar
    14    6    8 1
    15    7   27 1
    16    8    9 2
    17    9   10 1
    18    9   28 1
    19   10   19 ar
    20   10   11 ar
    21   11   16 ar
    22   11   12 ar
    23   12   13 ar
    24   12   29 1
    25   13   14 ar
    26   13   30 1
    27   14   15 ar
    28   14   31 1
    29   15   16 ar
    30   15   32 1
    31   16   17 ar
    32   17   18 ar
    33   17   33 1
    34   18   19 ar
    35   18   34 1
    36   19   20 1
    37   20   35 1
    38   22   36 1
    39   22   37 1
    40   22   38 1
@<TRIPOS>MOLECULE
ZINC64937827
   34    35     0     0     0
SMALL
USER_CHARGES

@<TRIPOS>ATOM
      1 C1         -0.0167    1.3786    0.0096 C.ar      1 <0>        -0.0619
      2 C2          1.1689    2.0869    0.0021 C.ar      1 <0>        -0.1818
      3 C3          2.3811    1.4088   -0.0131 C.ar      1 <0>         0.2859
      4 C4          2.3964    0.0198   -0.0206 C.ar      1 <0>        -0.2648
      5 C5          1.2071   -0.6823   -0.0130 C.ar      1 <0>        -0.0474
      6 C6          0.0021   -0.0041    0.0020 C.ar      1 <0>        -0.2109
      7 C7         -1.2936   -0.7736    0.0107 C.3       1 <0>         0.0347
      8 C8         -1.7292   -1.0167   -1.3742 C.1       1 <0>         0.2190
      9 N1         -2.0654   -1.2043   -2.4430 N.1       1 <0>        -0.4609
     10 N2          3.5820    2.1220   -0.0212 N.2       1 <0>        -1.0858
     11 S1          5.0262    1.3117   -0.0392 S.o2      1 <0>         2.5996
     12 O1          5.1229    0.6264    1.2018 O.2       1 <0>        -1.0247
     13 O2          5.0987    0.6388   -1.2887 O.2       1 <0>        -1.0246
     14 C9          6.3041    2.5247   -0.0456 C.ar      1 <0>        -0.6040
     15 C10         6.7888    3.0098   -1.2466 C.ar      1 <0>        -0.0043
     16 C11         7.7906    3.9601   -1.2555 C.ar      1 <0>        -0.1071
     17 C12         8.3114    4.4294   -0.0556 C.ar      1 <0>        -0.0723
     18 C13         7.8215    3.9401    1.1494 C.ar      1 <0>        -0.1461
     19 C14         6.8161    2.9936    1.1506 C.ar      1 <0>        -0.0002
     20 S2          9.5902    5.6416   -0.0620 S.3       1 <0>        -0.0268
     21 C15         9.9311    5.9292    1.6964 C.3       1 <0>         0.4518
     22 F1         10.3420    4.7326    2.2935 F         1 <0>        -0.1621
     23 F2         10.9435    6.8861    1.8247 F         1 <0>        -0.1472
     24 F3          8.7706    6.3905    2.3270 F         1 <0>        -0.1608
     25 H1         -0.9595    1.9052    0.0260 H         1 <0>         0.1084
     26 H2          1.1535    3.1668    0.0077 H         1 <0>         0.1144
     27 H3          3.3371   -0.5105   -0.0328 H         1 <0>         0.0988
     28 H4          1.2182   -1.7622   -0.0189 H         1 <0>         0.1055
     29 H5         -1.1466   -1.7270    0.5180 H         1 <0>         0.1053
     30 H6         -2.0553   -0.1966    0.5352 H         1 <0>         0.1063
     31 H7          6.3836    2.6445   -2.1787 H         1 <0>         0.1499
     32 H8          8.1691    4.3379   -2.1938 H         1 <0>         0.1387
     33 H9          8.2239    4.3026    2.0838 H         1 <0>         0.1279
     34 H10         6.4321    2.6159    2.0866 H         1 <0>         0.1474
@<TRIPOS>BOND
     1    1    6 ar
     2    1    2 ar
     3    1   25 1
     4    2    3 ar
     5    2   26 1
     6    3    4 ar
     7    3   10 1
     8    4    5 ar
     9    4   27 1
    10    5    6 ar
    11    5   28 1
    12    6    7 1
    13    7    8 1
    14    7   29 1
    15    7   30 1
    16    8    9 3
    17   10   11 1
    18   11   12 2
    19   11   13 2
    20   11   14 1
    21   14   19 ar
    22   14   15 ar
    23   15   16 ar
    24   15   31 1
    25   16   17 ar
    26   16   32 1
    27   17   18 ar
    28   17   20 1
    29   18   19 ar
    30   18   33 1
    31   19   34 1
    32   20   21 1
    33   21   22 1
    34   21   23 1
    35   21   24 1
@<TRIPOS>MOLECULE
ZINC20591164
   25    27     0     0     0
SMALL
USER_CHARGES
4-(4-bromo-2,6-dichloro-phenyl)-5-(2-thienyl)-1,2,4-triazole-3-thiol
@<TRIPOS>ATOM
      1 C1          0.1353    6.5920    4.8989 C.2       1 <0>        -0.1430
      2 C2          0.1893    7.2091    3.6694 C.2       1 <0>        -0.1412
      3 C3         -0.0783    6.4658    2.5473 C.2       1 <0>        -0.0398
      4 S1         -0.4207    4.8583    3.2448 S.3       1 <0>         0.0474
      5 C4         -0.1795    5.2723    4.9645 C.2       1 <0>        -0.1887
      6 C5         -0.0870    6.8857    1.1371 C.2       1 <0>         0.1970
      7 N1         -0.1028    8.1221    0.6889 N.2       1 <0>        -0.2472
      8 N2         -0.1148    8.1238   -0.5959 N.2       1 <0>        -0.3325
      9 C6         -0.1018    6.8917   -1.0514 C.2       1 <0>         0.4046
     10 N3         -0.0801    6.0576    0.0344 N.pl3     1 <0>        -0.4585
     11 C7         -0.0611    4.6550    0.0267 C.ar      1 <0>         0.1870
     12 C8          1.1503    3.9756    0.0120 C.ar      1 <0>         0.0008
     13 C9          1.1658    2.5933    0.0049 C.ar      1 <0>        -0.0766
     14 C10        -0.0236    1.8867    0.0124 C.ar      1 <0>        -0.0634
     15 C11        -1.2318    2.5607    0.0218 C.ar      1 <0>        -0.0765
     16 C12        -1.2537    3.9429    0.0343 C.ar      1 <0>        -0.0004
     17 Cl1        -2.7701    4.7877    0.0527 Cl        1 <0>        -0.0235
     18 Br1         0.0021   -0.0041    0.0020 Br        1 <0>        -0.0249
     19 Cl2         2.6433    4.8614    0.0030 Cl        1 <0>        -0.0241
     20 S2         -0.1103    6.4033   -2.7444 S.3       1 <0>        -0.7682
     21 H1          0.3413    7.1502    5.8002 H         1 <0>         0.1350
     22 H2          0.4368    8.2573    3.5896 H         1 <0>         0.1421
     23 H3         -0.2660    4.6377    5.8339 H         1 <0>         0.1846
     24 H4          2.1074    2.0645   -0.0070 H         1 <0>         0.1549
     25 H5         -2.1587    2.0065    0.0232 H         1 <0>         0.1551
@<TRIPOS>BOND
     1    1    5 2
     2    1    2 1
     3    1   21 1
     4    2    3 2
     5    2   22 1
     6    3    4 1
     7    3    6 1
     8    4    5 1
     9    5   23 1
    10    6   10 1
    11    6    7 2
    12    7    8 1
    13    8    9 2
    14    9   20 1
    15    9   10 1
    16   10   11 1
    17   11   16 ar
    18   11   12 ar
    19   12   13 ar
    20   12   19 1
    21   13   14 ar
    22   13   24 1
    23   14   15 ar
    24   14   18 1
    25   15   16 ar
    26   15   25 1
    27   16   17 1
@<TRIPOS>MOLECULE
ZINC02052785
   42    45     0     0     0
SMALL
USER_CHARGES

@<TRIPOS>ATOM
      1 C1         -0.0164    1.3554    0.0095 C.ar      1 <0>        -0.1123
      2 C2          1.1548    2.1004    0.0023 C.ar      1 <0>        -0.0929
      3 C3          2.3733    1.4473   -0.0128 C.ar      1 <0>        -0.0679
      4 C4          2.4033    0.0744   -0.0205 C.ar      1 <0>        -0.1565
      5 C5          1.2273   -0.7129   -0.0135 C.ar      1 <0>         0.0771
      6 C6          0.0021   -0.0041    0.0020 C.ar      1 <0>        -0.0605
      7 N1          1.4170   -2.0466   -0.0229 N.2       1 <0>        -0.5012
      8 C7          2.6159   -2.5904   -0.0377 C.2       1 <0>         0.1980
      9 S1          3.6836   -1.1570   -0.0400 S.3       1 <0>         0.0353
     10 C8          2.9842   -4.0188   -0.0494 C.ar      1 <0>        -0.0615
     11 C9          1.9867   -4.9981   -0.0510 C.ar      1 <0>        -0.0331
     12 C10         2.3230   -6.3206   -0.0612 C.ar      1 <0>        -0.1620
     13 C11         3.6693   -6.7057   -0.0703 C.ar      1 <0>         0.1251
     14 C12         4.6748   -5.7345   -0.0688 C.ar      1 <0>        -0.1308
     15 C13         4.3355   -4.3949   -0.0646 C.ar      1 <0>         0.1556
     16 O1          5.3068   -3.4461   -0.0688 O.3       1 <0>        -0.4820
     17 N2          3.9998   -8.0291   -0.0801 N.2       1 <0>        -0.4785
     18 C14         3.3842   -8.8637    0.7198 C.2       1 <0>         0.1995
     19 C15         3.7263  -10.2334    0.7097 C.2       1 <0>        -0.1283
     20 C16         3.0906  -11.0954    1.5358 C.2       1 <0>        -0.0524
     21 C17         3.4467  -12.5216    1.5252 C.ar      1 <0>        -0.0564
     22 C18         4.4470  -12.9904    0.6660 C.ar      1 <0>        -0.0783
     23 C19         4.7758  -14.3284    0.6619 C.ar      1 <0>        -0.1046
     24 C20         4.1187  -15.2103    1.5055 C.ar      1 <0>        -0.0168
     25 C21         3.1274  -14.7553    2.3587 C.ar      1 <0>        -0.1030
     26 C22         2.7909  -13.4171    2.3790 C.ar      1 <0>        -0.0089
     27 Cl1         1.5530  -12.8468    3.4542 Cl        1 <0>        -0.0457
     28 Cl2         4.5402  -16.8943    1.4920 Cl        1 <0>        -0.0501
     29 H1         -0.9664    1.8687    0.0259 H         1 <0>         0.1350
     30 H2          1.1146    3.1797    0.0082 H         1 <0>         0.1398
     31 H3          3.2938    2.0121   -0.0190 H         1 <0>         0.1346
     32 H4         -0.9297   -0.5500    0.0084 H         1 <0>         0.1327
     33 H5          0.9467   -4.7072   -0.0437 H         1 <0>         0.1444
     34 H6          1.5481   -7.0728   -0.0621 H         1 <0>         0.1358
     35 H7          5.7135   -6.0301   -0.0750 H         1 <0>         0.1467
     36 H8          5.5967   -3.1762    0.8133 H         1 <0>         0.3973
     37 H9          2.6150   -8.5041    1.3872 H         1 <0>         0.1097
     38 H10         4.4955  -10.5930    0.0423 H         1 <0>         0.1365
     39 H11         2.3214  -10.7358    2.2032 H         1 <0>         0.1370
     40 H12         4.9598  -12.3051    0.0074 H         1 <0>         0.1496
     41 H13         5.5475  -14.6912   -0.0008 H         1 <0>         0.1454
     42 H14         2.6193  -15.4486    3.0126 H         1 <0>         0.1487
@<TRIPOS>BOND
     1    1    6 ar
     2    1    2 ar
     3    1   29 1
     4    2    3 ar
     5    2   30 1
     6    3    4 ar
     7    3   31 1
     8    4    9 1
     9    4    5 ar
    10    5    6 ar
    11    5    7 1
    12    6   32 1
    13    7    8 2
    14    8    9 1
    15    8   10 1
    16   10   15 ar
    17   10   11 ar
    18   11   12 ar
    19   11   33 1
    20   12   13 ar
    21   12   34 1
    22   13   14 ar
    23   13   17 1
    24   14   15 ar
    25   14   35 1
    26   15   16 1
    27   16   36 1
    28   17   18 2
    29   18   19 1
    30   18   37 1
    31   19   20 2
    32   19   38 1
    33   20   21 1
    34   20   39 1
    35   21   26 ar
    36   21   22 ar
    37   22   23 ar
    38   22   40 1
    39   23   24 ar
    40   23   41 1
    41   24   25 ar
    42   24   28 1
    43   25   26 ar
    44   25   42 1
    45   26   27 1
@<TRIPOS>MOLECULE
ZINC40927226
   48    50     0     0     0
SMALL
USER_CHARGES

@<TRIPOS>ATOM
      1 C1          0.6139    1.9502   -0.1878 C.3       1 <0>        -0.0418
      2 C2          0.4185    0.4624   -0.0491 C.2       1 <0>        -0.2716
      3 C3         -0.7201   -0.2470    0.2267 C.2       1 <0>         0.1122
      4 N1         -0.6617   -1.5650    0.3032 N.2       1 <0>        -0.5653
      5 C4          0.4816   -2.2134    0.1173 C.2       1 <0>         0.4080
      6 S1          1.6076   -0.8636   -0.2069 S.3       1 <0>        -0.0420
      7 N2          0.7288   -3.5475    0.1570 N.2       1 <0>        -0.5785
      8 C5          1.9457   -3.9974   -0.0569 C.2       1 <0>         0.4577
      9 O1          2.9510   -3.1309   -0.3165 O.3       1 <0>        -0.6612
     10 C6          2.2134   -5.4422   -0.0139 C.2       1 <0>        -0.0299
     11 C7          3.4869   -5.9130   -0.2378 C.2       1 <0>         0.0102
     12 C8          3.7263   -7.3561   -0.3503 C.ar      1 <0>        -0.0821
     13 C9          2.7142   -8.2036   -0.8187 C.ar      1 <0>        -0.0972
     14 C10         2.9478   -9.5581   -0.9212 C.ar      1 <0>        -0.1167
     15 C11         4.1783  -10.0815   -0.5624 C.ar      1 <0>        -0.0687
     16 C12         5.1843   -9.2512   -0.0985 C.ar      1 <0>        -0.1204
     17 C13         4.9702   -7.8936    0.0045 C.ar      1 <0>        -0.0880
     18 C14         4.4238  -11.5640   -0.6771 C.3       1 <0>        -0.0587
     19 C15         5.5867  -11.8154   -1.6390 C.3       1 <0>        -0.1437
     20 C16         4.7699  -12.1316    0.7009 C.3       1 <0>        -0.1443
     21 C17         1.1488   -6.3598    0.2609 C.1       1 <0>         0.2773
     22 N3          0.3044   -7.0876    0.4790 N.1       1 <0>        -0.4311
     23 C18        -2.0078    0.4580    0.4382 C.ar      1 <0>         0.0145
     24 C19        -2.8565    0.0686    1.4730 C.ar      1 <0>        -0.0812
     25 C20        -4.0534    0.7277    1.6656 C.ar      1 <0>        -0.1125
     26 C21        -4.4120    1.7739    0.8328 C.ar      1 <0>        -0.0436
     27 C22        -3.5727    2.1643   -0.1967 C.ar      1 <0>        -0.1123
     28 C23        -2.3706    1.5160   -0.3936 C.ar      1 <0>        -0.0995
     29 Cl1        -5.9194    2.5987    1.0800 Cl        1 <0>        -0.0858
     30 H1          1.6737    2.1665   -0.3227 H         1 <0>         0.0603
     31 H2          0.0566    2.3108   -1.0524 H         1 <0>         0.0610
     32 H3          0.2528    2.4495    0.7113 H         1 <0>         0.0617
     33 H4          4.3102   -5.2202   -0.3306 H         1 <0>         0.1616
     34 H5          1.7535   -7.7970   -1.0983 H         1 <0>         0.1284
     35 H6          2.1686  -10.2130   -1.2820 H         1 <0>         0.1222
     36 H7          6.1411   -9.6680    0.1795 H         1 <0>         0.1235
     37 H8          5.7577   -7.2467    0.3619 H         1 <0>         0.1310
     38 H9          3.5264  -12.0526   -1.0564 H         1 <0>         0.0770
     39 H10         6.4842  -11.3267   -1.2597 H         1 <0>         0.0574
     40 H11         5.7643  -12.8876   -1.7219 H         1 <0>         0.0565
     41 H12         5.3401  -11.4110   -2.6207 H         1 <0>         0.0564
     42 H13         3.9415  -11.9525    1.3862 H         1 <0>         0.0565
     43 H14         4.9476  -13.2039    0.6180 H         1 <0>         0.0567
     44 H15         5.6674  -11.6430    1.0802 H         1 <0>         0.0573
     45 H16        -2.5780   -0.7479    2.1228 H         1 <0>         0.1345
     46 H17        -4.7117    0.4267    2.4671 H         1 <0>         0.1299
     47 H18        -3.8573    2.9806   -0.8441 H         1 <0>         0.1302
     48 H19        -1.7143    1.8247   -1.1938 H         1 <0>         0.1339
@<TRIPOS>BOND
     1    1    2 1
     2    1   30 1
     3    1   31 1
     4    1   32 1
     5    2    6 1
     6    2    3 2
     7    3    4 1
     8    3   23 1
     9    4    5 2
    10    5    6 1
    11    5    7 1
    12    7    8 2
    13    8    9 1
    14    8   10 1
    15   10   11 2
    16   10   21 1
    17   11   12 1
    18   11   33 1
    19   12   17 ar
    20   12   13 ar
    21   13   14 ar
    22   13   34 1
    23   14   15 ar
    24   14   35 1
    25   15   16 ar
    26   15   18 1
    27   16   17 ar
    28   16   36 1
    29   17   37 1
    30   18   19 1
    31   18   20 1
    32   18   38 1
    33   19   39 1
    34   19   40 1
    35   19   41 1
    36   20   42 1
    37   20   43 1
    38   20   44 1
    39   21   22 3
    40   23   28 ar
    41   23   24 ar
    42   24   25 ar
    43   24   45 1
    44   25   26 ar
    45   25   46 1
    46   26   27 ar
    47   26   29 1
    48   27   28 ar
    49   27   47 1
    50   28   48 1
@<TRIPOS>MOLECULE
ZINC17147270
   54    57     0     0     0
SMALL
USER_CHARGES

@<TRIPOS>ATOM
      1 C1          1.3725    0.0910   -0.9803 C.3       1 <0>        -0.1103
      2 C2          0.2667   -0.7991   -0.4744 C.ar      1 <0>        -0.0828
      3 C3         -0.8998   -0.9348   -1.2050 C.ar      1 <0>        -0.1240
      4 C4         -1.9169   -1.7501   -0.7442 C.ar      1 <0>        -0.1127
      5 C5         -1.7707   -2.4325    0.4479 C.ar      1 <0>        -0.1248
      6 C6         -0.6005   -2.2988    1.1837 C.ar      1 <0>         0.1995
      7 C7          0.4215   -1.4829    0.7152 C.ar      1 <0>        -0.0870
      8 N1         -0.4494   -2.9879    2.3911 N.pl3     1 <0>        -0.5897
      9 C8         -0.5561   -2.4114    3.6343 C.2       1 <0>         0.5638
     10 S1         -0.7114   -0.6767    3.8968 S.3       1 <0>        -0.7538
     11 N2         -0.5458   -3.3034    4.5940 N.2       1 <0>        -0.6225
     12 C9         -0.4287   -4.5462    4.1227 C.2       1 <0>         0.3764
     13 N3         -0.5166   -5.6700    4.7897 N.2       1 <0>        -0.5510
     14 C10        -0.7752   -5.6497    6.1333 C.ar      1 <0>         0.1491
     15 C11        -0.0271   -4.8277    6.9796 C.ar      1 <0>        -0.1249
     16 C12        -0.2932   -4.8124    8.3327 C.ar      1 <0>        -0.1128
     17 C13        -1.2982   -5.6091    8.8527 C.ar      1 <0>        -0.1520
     18 C14        -2.0431   -6.4256    8.0205 C.ar      1 <0>        -0.1145
     19 C15        -1.7920   -6.4464    6.6641 C.ar      1 <0>        -0.1057
     20 C16        -2.6086   -7.3318    5.7583 C.3       1 <0>        -0.0931
     21 C17        -0.1502   -4.4050    2.6275 C.3       1 <0>         0.1820
     22 C18        -1.1152   -5.3171    1.8873 C.3       1 <0>        -0.1401
     23 C19        -0.6989   -5.4874    0.4281 C.3       1 <0>         0.0644
     24 O1          0.6198   -6.0224    0.3967 O.3       1 <0>        -0.3699
     25 C20         1.6464   -5.2416    0.9867 C.3       1 <0>         0.1277
     26 C21         1.3063   -4.7318    2.3765 C.3       1 <0>        -0.1299
     27 C22         2.9021   -6.1358    1.1033 C.3       1 <0>        -0.1387
     28 C23         2.0108   -4.0716    0.0640 C.3       1 <0>        -0.1765
     29 H1          2.0455   -0.4888   -1.6118 H         1 <0>         0.0661
     30 H2          0.9442    0.9085   -1.5603 H         1 <0>         0.0643
     31 H3          1.9275    0.4973   -0.1347 H         1 <0>         0.0663
     32 H4         -1.0166   -0.4024   -2.1374 H         1 <0>         0.1187
     33 H5         -2.8268   -1.8534   -1.3167 H         1 <0>         0.1213
     34 H6         -2.5657   -3.0689    0.8075 H         1 <0>         0.1173
     35 H7          1.3344   -1.3800    1.2831 H         1 <0>         0.1193
     36 H8          0.7580   -4.2060    6.5752 H         1 <0>         0.1168
     37 H9          0.2844   -4.1774    8.9881 H         1 <0>         0.1111
     38 H10        -1.5018   -5.5936    9.9132 H         1 <0>         0.1103
     39 H11        -2.8259   -7.0448    8.4330 H         1 <0>         0.1125
     40 H12        -2.1331   -8.3095    5.6808 H         1 <0>         0.0606
     41 H13        -3.6112   -7.4470    6.1702 H         1 <0>         0.0512
     42 H14        -2.6721   -6.8792    4.7687 H         1 <0>         0.0641
     43 H15        -1.1312   -6.2978    2.3734 H         1 <0>         0.0980
     44 H16        -2.1231   -4.8958    1.9319 H         1 <0>         0.0726
     45 H17        -1.3799   -6.2036   -0.0517 H         1 <0>         0.0905
     46 H18        -0.7553   -4.5527   -0.1136 H         1 <0>         0.0574
     47 H19         1.9087   -3.8303    2.5784 H         1 <0>         0.0735
     48 H20         1.6303   -5.4831    3.1161 H         1 <0>         0.0850
     49 H21         3.2021   -6.4721    0.1108 H         1 <0>         0.0617
     50 H22         3.7138   -5.5653    1.5545 H         1 <0>         0.0662
     51 H23         2.6755   -7.0007    1.7269 H         1 <0>         0.0630
     52 H24         1.1072   -3.5224   -0.2005 H         1 <0>         0.0659
     53 H25         2.7035   -3.4055    0.5783 H         1 <0>         0.0610
     54 H26         2.4807   -4.4557   -0.8415 H         1 <0>         0.0588
@<TRIPOS>BOND
     1    1    2 1
     2    1   29 1
     3    1   30 1
     4    1   31 1
     5    2    7 ar
     6    2    3 ar
     7    3    4 ar
     8    3   32 1
     9    4    5 ar
    10    4   33 1
    11    5    6 ar
    12    5   34 1
    13    6    7 ar
    14    6    8 1
    15    7   35 1
    16    8   21 1
    17    8    9 1
    18    9   10 1
    19    9   11 2
    20   11   12 1
    21   12   13 2
    22   12   21 1
    23   13   14 1
    24   14   19 ar
    25   14   15 ar
    26   15   16 ar
    27   15   36 1
    28   16   17 ar
    29   16   37 1
    30   17   18 ar
    31   17   38 1
    32   18   19 ar
    33   18   39 1
    34   19   20 1
    35   20   40 1
    36   20   41 1
    37   20   42 1
    38   21   26 1
    39   21   22 1
    40   22   23 1
    41   22   43 1
    42   22   44 1
    43   23   24 1
    44   23   45 1
    45   23   46 1
    46   24   25 1
    47   25   26 1
    48   25   27 1
    49   25   28 1
    50   26   47 1
    51   26   48 1
    52   27   49 1
    53   27   50 1
    54   27   51 1
    55   28   52 1
    56   28   53 1
    57   28   54 1
@<TRIPOS>MOLECULE
ZINC15830871
   32    35     0     0     0
SMALL
USER_CHARGES

@<TRIPOS>ATOM
      1 C1         -0.0167    1.3791    0.0096 C.ar      1 <0>        -0.1109
      2 C2          1.1686    2.0921    0.0021 C.ar      1 <0>        -0.1334
      3 C3          2.3774    1.4263   -0.0129 C.ar      1 <0>        -0.0695
      4 C4          2.4024    0.0328   -0.0206 C.ar      1 <0>        -0.0277
      5 C5          1.2050   -0.6804   -0.0130 C.ar      1 <0>        -0.0754
      6 C6          0.0021   -0.0041    0.0020 C.ar      1 <0>        -0.1361
      7 C7          3.6983   -0.6884   -0.0373 C.ar      1 <0>         0.3812
      8 N1          4.8246    0.0101   -0.0447 N.ar      1 <0>        -0.5326
      9 C8          6.0047   -0.6055   -0.0603 C.ar      1 <0>         0.3661
     10 S1          7.5000    0.3265   -0.0704 S.3       1 <0>        -0.8105
     11 C9          6.0391   -1.9988   -0.0680 C.ar      1 <0>        -0.2696
     12 C10         7.3559   -2.7211   -0.0853 C.3       1 <0>        -0.0043
     13 C11         7.1637   -4.1534   -0.5062 C.ar      1 <0>        -0.1242
     14 C12         8.2580   -4.8873   -0.9293 C.ar      1 <0>        -0.0554
     15 C13         8.1040   -6.2045   -1.3198 C.ar      1 <0>        -0.1119
     16 C14         6.8523   -6.7933   -1.2878 C.ar      1 <0>        -0.0687
     17 C15         5.7581   -6.0656   -0.8661 C.ar      1 <0>        -0.1258
     18 C16         5.9097   -4.7403   -0.4737 C.ar      1 <0>         0.1369
     19 O1          4.8206   -4.0446   -0.0650 O.3       1 <0>        -0.2339
     20 C17         4.8416   -2.6955   -0.0590 C.ar      1 <0>         0.3603
     21 N2          3.6985   -2.0137   -0.0389 N.ar      1 <0>        -0.5629
     22 Br1         9.6035   -7.2010   -1.8980 Br        1 <0>        -0.0540
     23 H1         -0.9603    1.9042    0.0260 H         1 <0>         0.1193
     24 H2          1.1481    3.1719    0.0077 H         1 <0>         0.1238
     25 H3          3.3022    1.9840   -0.0191 H         1 <0>         0.1398
     26 H4          1.2185   -1.7603   -0.0193 H         1 <0>         0.1352
     27 H5         -0.9264   -0.5557    0.0079 H         1 <0>         0.1222
     28 H6          8.0291   -2.2268   -0.7858 H         1 <0>         0.1071
     29 H7          7.7949   -2.6943    0.9120 H         1 <0>         0.0897
     30 H8          9.2357   -4.4293   -0.9550 H         1 <0>         0.1411
     31 H9          6.7315   -7.8221   -1.5931 H         1 <0>         0.1407
     32 H10         4.7817   -6.5266   -0.8410 H         1 <0>         0.1432
@<TRIPOS>BOND
     1    1    6 ar
     2    1    2 ar
     3    1   23 1
     4    2    3 ar
     5    2   24 1
     6    3    4 ar
     7    3   25 1
     8    4    5 ar
     9    4    7 1
    10    5    6 ar
    11    5   26 1
    12    6   27 1
    13    7    8 ar
    14    7   21 ar
    15    8    9 ar
    16    9   11 ar
    17    9   10 1
    18   11   20 ar
    19   11   12 1
    20   12   13 1
    21   12   28 1
    22   12   29 1
    23   13   18 ar
    24   13   14 ar
    25   14   15 ar
    26   14   30 1
    27   15   16 ar
    28   15   22 1
    29   16   17 ar
    30   16   31 1
    31   17   18 ar
    32   17   32 1
    33   18   19 1
    34   19   20 1
    35   20   21 ar
@<TRIPOS>MOLECULE
ZINC11951645
   39    41     0     0     0
SMALL
USER_CHARGES
(Z)-3-[2-[(4-chlorophenyl)methoxy]-1-naphthyl]-2-cyano-prop-2-enoic acid
@<TRIPOS>ATOM
      1 C1          0.2463    1.2112   -0.6033 C.ar      1 <0>        -0.1393
      2 C2         -0.9982    1.8326   -0.6453 C.ar      1 <0>        -0.1144
      3 C3         -1.1194    3.1729   -0.4187 C.ar      1 <0>        -0.1086
      4 C4          0.0217    3.9348   -0.1522 C.ar      1 <0>         0.0073
      5 C5          1.2897    3.3078   -0.1139 C.ar      1 <0>        -0.0797
      6 C6          1.3780    1.9252   -0.3459 C.ar      1 <0>        -0.0944
      7 C7          2.4378    4.0766    0.1545 C.ar      1 <0>        -0.0733
      8 C8          2.3465    5.4142    0.3774 C.ar      1 <0>        -0.1781
      9 C9          1.1232    6.0819    0.3515 C.ar      1 <0>         0.1884
     10 C10        -0.0623    5.3780    0.0905 C.ar      1 <0>        -0.0625
     11 C11        -1.3075    6.0445    0.0623 C.2       1 <0>        -0.0283
     12 C12        -1.5358    7.0455   -0.8661 C.2       1 <0>        -0.0682
     13 C13        -2.7368    7.8225   -0.8004 C.1       1 <0>         0.2838
     14 N1         -3.6896    8.4389   -0.7483 N.1       1 <0>        -0.4561
     15 C14        -0.5470    7.3104   -1.9176 C.2       1 <0>         0.5044
     16 O1          0.4157    6.5786   -2.0453 O.co2     1 <0>        -0.6042
     17 O2          1.0787    7.4168    0.5789 O.3       1 <0>        -0.2890
     18 C15         2.3216    8.0726    0.8377 C.3       1 <0>         0.1015
     19 C16         2.0764    9.5420    1.0653 C.ar      1 <0>        -0.0858
     20 C17         2.1059   10.4207   -0.0015 C.ar      1 <0>        -0.0678
     21 C18         1.8755   11.7677    0.2057 C.ar      1 <0>        -0.1111
     22 C19         1.6265   12.2381    1.4828 C.ar      1 <0>        -0.0270
     23 C20         1.6027   11.3590    2.5508 C.ar      1 <0>        -0.1195
     24 C21         1.8277   10.0115    2.3415 C.ar      1 <0>        -0.0852
     25 Cl1         1.3435   13.9307    1.7448 Cl        1 <0>        -0.0768
     26 H1          0.3168    0.1484   -0.7817 H         1 <0>         0.1158
     27 H2         -1.8801    1.2456   -0.8555 H         1 <0>         0.1180
     28 H3         -2.0912    3.6431   -0.4494 H         1 <0>         0.1236
     29 H4          2.3378    1.4308   -0.3207 H         1 <0>         0.1209
     30 H5          3.4050    3.5969    0.1834 H         1 <0>         0.1231
     31 H6          3.2468    5.9754    0.5798 H         1 <0>         0.1239
     32 H7         -2.0813    5.7730    0.7651 H         1 <0>         0.1233
     33 H8          2.7830    7.6395    1.7252 H         1 <0>         0.0686
     34 H9          2.9856    7.9431   -0.0169 H         1 <0>         0.0752
     35 H10         2.3046   10.0540   -0.9977 H         1 <0>         0.1403
     36 H11         1.8941   12.4535   -0.6284 H         1 <0>         0.1358
     37 H12         1.4081   11.7256    3.5479 H         1 <0>         0.1328
     38 H13         1.8088    9.3251    3.1751 H         1 <0>         0.1326
     39 O3         -0.7061    8.3655   -2.7424 O.co2     1 <0>        -0.7502
@<TRIPOS>BOND
     1    1    6 ar
     2    1    2 ar
     3    1   26 1
     4    2    3 ar
     5    2   27 1
     6    3    4 ar
     7    3   28 1
     8    4   10 ar
     9    4    5 ar
    10    5    6 ar
    11    5    7 ar
    12    6   29 1
    13    7    8 ar
    14    7   30 1
    15    8    9 ar
    16    8   31 1
    17    9   10 ar
    18    9   17 1
    19   10   11 1
    20   11   12 2
    21   11   32 1
    22   12   13 1
    23   12   15 1
    24   13   14 3
    25   15   16 2
    26   15   39 1
    27   17   18 1
    28   18   19 1
    29   18   33 1
    30   18   34 1
    31   19   24 ar
    32   19   20 ar
    33   20   21 ar
    34   20   35 1
    35   21   22 ar
    36   21   36 1
    37   22   23 ar
    38   22   25 1
    39   23   24 ar
    40   23   37 1
    41   24   38 1
@<TRIPOS>MOLECULE
ZINC37369308
   29    30     0     0     0
SMALL
USER_CHARGES

@<TRIPOS>ATOM
      1 C1         -0.0184    1.5028    0.0103 C.3       1 <0>        -0.0817
      2 C2          0.0021   -0.0041    0.0020 C.ar      1 <0>        -0.1375
      3 C3          0.0058   -0.6887   -1.1977 C.ar      1 <0>        -0.0769
      4 C4          0.0250   -2.0710   -1.2067 C.ar      1 <0>        -0.1930
      5 C5          0.0401   -2.7736   -0.0143 C.ar      1 <0>        -0.0293
      6 C6          0.0360   -2.0946    1.1890 C.ar      1 <0>        -0.2351
      7 C7          0.0230   -0.7055    1.2007 C.ar      1 <0>         0.2849
      8 N1          0.0246   -0.0158    2.4152 N.2       1 <0>        -1.0788
      9 S1          0.0496   -0.8538    3.8433 S.o2      1 <0>         2.5985
     10 O1         -1.1855   -1.5518    3.9263 O.2       1 <0>        -1.0232
     11 O2          1.3049   -1.5170    3.9032 O.2       1 <0>        -1.0230
     12 C8          0.0450    0.3341    5.1446 C.ar      1 <0>        -0.6028
     13 C9          1.2405    0.8210    5.6401 C.ar      1 <0>        -0.0198
     14 C10         1.2377    1.7529    6.6609 C.ar      1 <0>        -0.1330
     15 C11         0.0396    2.1983    7.1874 C.ar      1 <0>        -0.0743
     16 C12        -1.1567    1.7115    6.6920 C.ar      1 <0>        -0.0592
     17 C13        -1.1534    0.7832    5.6659 C.ar      1 <0>        -0.0136
     18 Cl1        -2.6617    2.2704    7.3526 Cl        1 <0>        -0.0736
     19 Br1         0.0658   -4.6643   -0.0321 Br        1 <0>        -0.0920
     20 H1          1.0042    1.8801    0.0026 H         1 <0>         0.0505
     21 H2         -0.5455    1.8639   -0.8728 H         1 <0>         0.0408
     22 H3         -0.5286    1.8543    0.9071 H         1 <0>         0.0742
     23 H4         -0.0067   -0.1435   -2.1298 H         1 <0>         0.1146
     24 H5          0.0279   -2.6038   -2.1461 H         1 <0>         0.1127
     25 H6          0.0475   -2.6430    2.1194 H         1 <0>         0.1079
     26 H7          2.1768    0.4728    5.2296 H         1 <0>         0.1436
     27 H8          2.1718    2.1329    7.0476 H         1 <0>         0.1370
     28 H9          0.0376    2.9260    7.9855 H         1 <0>         0.1351
     29 H10        -2.0872    0.4061    5.2757 H         1 <0>         0.1470
@<TRIPOS>BOND
     1    1    2 1
     2    1   20 1
     3    1   21 1
     4    1   22 1
     5    2    7 ar
     6    2    3 ar
     7    3    4 ar
     8    3   23 1
     9    4    5 ar
    10    4   24 1
    11    5    6 ar
    12    5   19 1
    13    6    7 ar
    14    6   25 1
    15    7    8 1
    16    8    9 1
    17    9   10 2
    18    9   11 2
    19    9   12 1
    20   12   17 ar
    21   12   13 ar
    22   13   14 ar
    23   13   26 1
    24   14   15 ar
    25   14   27 1
    26   15   16 ar
    27   15   28 1
    28   16   17 ar
    29   16   18 1
    30   17   29 1
@<TRIPOS>MOLECULE
ZINC40476051
   27    29     0     0     0
SMALL
USER_CHARGES

@<TRIPOS>ATOM
      1 C1         -0.0167    1.3782    0.0096 C.ar      1 <0>        -0.0941
      2 C2          1.1706    2.0858    0.0021 C.ar      1 <0>        -0.1112
      3 C3          2.3780    1.4104   -0.0130 C.ar      1 <0>        -0.0326
      4 C4          2.3961    0.0270   -0.0206 C.ar      1 <0>        -0.1054
      5 C5          1.2082   -0.6795   -0.0130 C.ar      1 <0>        -0.0981
      6 C6          0.0021   -0.0041    0.0020 C.ar      1 <0>        -0.0743
      7 C7         -1.2928   -0.7750    0.0107 C.3       1 <0>         0.0634
      8 H1         -2.1256   -0.0719    0.0227 H         1 <0>         0.1071
      9 C8         -1.3737   -1.6034   -1.2223 C.2       1 <0>        -0.3009
     10 C9         -1.8439   -2.8738   -1.3788 C.2       1 <0>         0.1252
     11 N1         -1.7907   -3.3443   -2.6246 N.2       1 <0>        -0.5595
     12 C10        -1.3114   -2.6269   -3.6176 C.2       1 <0>         0.2826
     13 S1         -1.1593   -3.0725   -5.3155 S.3       1 <0>        -0.7262
     14 S2         -0.8783   -1.1796   -2.8734 S.3       1 <0>         0.0547
     15 S3         -2.4655   -3.7856    0.0169 S.3       1 <0>        -0.0745
     16 C11        -2.6335   -2.4787    1.2726 C.3       1 <0>        -0.1039
     17 C12        -1.3509   -1.6391    1.2689 C.3       1 <0>         0.0163
     18 H2         -1.3380   -0.9968    2.1495 H         1 <0>         0.1327
     19 C13        -0.1812   -2.5322    1.3021 C.1       1 <0>         0.2177
     20 N2          0.7215   -3.2214    1.3277 N.1       1 <0>        -0.4149
     21 Cl1         3.8696    2.2984   -0.0231 Cl        1 <0>        -0.0776
     22 H3         -0.9592    1.9053    0.0259 H         1 <0>         0.1354
     23 H4          1.1558    3.1656    0.0076 H         1 <0>         0.1333
     24 H5          3.3383   -0.5007   -0.0327 H         1 <0>         0.1306
     25 H6          1.2222   -1.7594   -0.0193 H         1 <0>         0.1375
     26 H7         -3.4880   -1.8462    1.0321 H         1 <0>         0.1128
     27 H8         -2.7747   -2.9294    2.2549 H         1 <0>         0.1240
@<TRIPOS>BOND
     1    1    6 ar
     2    1    2 ar
     3    1   22 1
     4    2    3 ar
     5    2   23 1
     6    3    4 ar
     7    3   21 1
     8    4    5 ar
     9    4   24 1
    10    5    6 ar
    11    5   25 1
    12    6    7 1
    13    7    8 1
    14    7   17 1
    15    7    9 1
    16    9   14 1
    17    9   10 2
    18   10   11 1
    19   10   15 1
    20   11   12 2
    21   12   13 1
    22   12   14 1
    23   15   16 1
    24   16   17 1
    25   16   26 1
    26   16   27 1
    27   17   18 1
    28   17   19 1
    29   19   20 3
@<TRIPOS>MOLECULE
ZINC48652682
   32    33     0     0     0
SMALL
USER_CHARGES

@<TRIPOS>ATOM
      1 C1         -0.0791    1.5016    0.0183 C.3       1 <0>        -0.0890
      2 C2         -0.0425   -0.0049    0.0068 C.ar      1 <0>        -0.1901
      3 C3         -0.0581   -0.7045    1.1996 C.ar      1 <0>        -0.0589
      4 C4         -0.0246   -2.0853    1.1931 C.ar      1 <0>        -0.2527
      5 C5          0.0242   -2.7718   -0.0131 C.ar      1 <0>         0.2855
      6 C6          0.0392   -2.0661   -1.2105 C.ar      1 <0>        -0.0898
      7 C7          0.0007   -0.6846   -1.1966 C.ar      1 <0>        -0.0672
      8 Cl1         0.1002   -2.9189   -2.7213 Cl        1 <0>        -0.0910
      9 N1          0.0585   -4.1688   -0.0231 N.2       1 <0>        -1.0675
     10 S1          0.2021   -5.0036    1.3999 S.o2      1 <0>         2.6045
     11 O1          1.4475   -4.6244    1.9694 O.2       1 <0>        -1.0292
     12 O2         -1.0304   -4.8460    2.0894 O.2       1 <0>        -1.0234
     13 C8          0.3350   -6.7122    0.9904 C.ar      1 <0>        -0.6192
     14 C9          1.4990   -7.4024    1.2743 C.ar      1 <0>        -0.0146
     15 C10         1.6040   -8.7423    0.9529 C.ar      1 <0>        -0.1468
     16 C11         0.5438   -9.3934    0.3473 C.ar      1 <0>         0.0084
     17 C12        -0.6207   -8.7025    0.0639 C.ar      1 <0>        -0.1428
     18 C13        -0.7264   -7.3635    0.3906 C.ar      1 <0>         0.0415
     19 C14        -1.9970   -6.6120    0.0871 C.3       1 <0>        -0.1631
     20 Cl2         0.6751  -11.0765   -0.0572 Cl        1 <0>        -0.0758
     21 H1         -1.1151    1.8400   -0.0018 H         1 <0>         0.0526
     22 H2          0.4059    1.8699    0.9223 H         1 <0>         0.0531
     23 H3          0.4453    1.8845   -0.8572 H         1 <0>         0.0530
     24 H4         -0.0960   -0.1704    2.1375 H         1 <0>         0.1072
     25 H5         -0.0361   -2.6306    2.1253 H         1 <0>         0.1043
     26 H6          0.0082   -0.1353   -2.1265 H         1 <0>         0.1141
     27 H7          2.3264   -6.8941    1.7469 H         1 <0>         0.1474
     28 H8          2.5135   -9.2811    1.1741 H         1 <0>         0.1360
     29 H9         -1.4485   -9.2102   -0.4088 H         1 <0>         0.1362
     30 H10        -1.9340   -6.1803   -0.9118 H         1 <0>         0.0954
     31 H11        -2.8440   -7.2965    0.1343 H         1 <0>         0.0694
     32 H12        -2.1319   -5.8159    0.8192 H         1 <0>         0.1128
@<TRIPOS>BOND
     1    1    2 1
     2    1   21 1
     3    1   22 1
     4    1   23 1
     5    2    7 ar
     6    2    3 ar
     7    3    4 ar
     8    3   24 1
     9    4    5 ar
    10    4   25 1
    11    5    6 ar
    12    5    9 1
    13    6    7 ar
    14    6    8 1
    15    7   26 1
    16    9   10 1
    17   10   11 2
    18   10   12 2
    19   10   13 1
    20   13   18 ar
    21   13   14 ar
    22   14   15 ar
    23   14   27 1
    24   15   16 ar
    25   15   28 1
    26   16   17 ar
    27   16   20 1
    28   17   18 ar
    29   17   29 1
    30   18   19 1
    31   19   30 1
    32   19   31 1
    33   19   32 1
@<TRIPOS>MOLECULE
ZINC58902770
   29    30     0     0     0
SMALL
USER_CHARGES

@<TRIPOS>ATOM
      1 C1         -0.5833    0.0526    0.0378 C.ar      1 <0>        -0.1263
      2 C2          0.4303    0.9902   -0.0294 C.ar      1 <0>        -0.1206
      3 C3          1.7504    0.5806   -0.0501 C.ar      1 <0>        -0.1092
      4 C4          2.0570   -0.7666   -0.0031 C.ar      1 <0>        -0.0717
      5 C5          1.0434   -1.7041    0.0651 C.ar      1 <0>        -0.1105
      6 C6         -0.2768   -1.2945    0.0843 C.ar      1 <0>        -0.1204
      7 C7          3.4961   -1.2131   -0.0266 C.3       1 <0>        -0.5654
      8 S1          4.1234   -1.3213    1.6720 S.o2      1 <0>         2.5443
      9 O1          4.2072   -0.0243    2.2464 O.2       1 <0>        -0.9989
     10 O2          3.4781   -2.3804    2.3656 O.2       1 <0>        -1.0207
     11 N1          5.6959   -1.8160    1.5142 N.2       1 <0>        -1.1264
     12 C8          6.4521   -2.1170    2.6521 C.ar      1 <0>         0.2887
     13 C9          6.8380   -3.4276    2.9049 C.ar      1 <0>        -0.0604
     14 C10         7.5855   -3.7217    4.0297 C.ar      1 <0>        -0.0810
     15 C11         7.9491   -2.7126    4.9039 C.ar      1 <0>        -0.0870
     16 C12         7.5663   -1.4064    4.6549 C.ar      1 <0>        -0.0780
     17 C13         6.8236   -1.1050    3.5288 C.ar      1 <0>        -0.1079
     18 Cl1         6.3500    0.5351    3.2134 Cl        1 <0>        -0.0299
     19 Cl2         8.8870   -3.0862    6.3162 Cl        1 <0>        -0.0895
     20 Cl3         6.3813   -4.6945    1.8093 Cl        1 <0>        -0.0663
     21 H1         -1.6145    0.3728    0.0585 H         1 <0>         0.1209
     22 H2          0.1908    2.0426   -0.0661 H         1 <0>         0.1232
     23 H3          2.5423    1.3130   -0.1033 H         1 <0>         0.1279
     24 H4          1.2829   -2.7566    0.1014 H         1 <0>         0.1275
     25 H5         -1.0687   -2.0270    0.1371 H         1 <0>         0.1234
     26 H6          3.5652   -2.1913   -0.5025 H         1 <0>         0.1269
     27 H7          4.0909   -0.4929   -0.5884 H         1 <0>         0.1279
     28 H8          7.8857   -4.7403    4.2268 H         1 <0>         0.1303
     29 H9          7.8513   -0.6210    5.3393 H         1 <0>         0.1289
@<TRIPOS>BOND
     1    1    6 ar
     2    1    2 ar
     3    1   21 1
     4    2    3 ar
     5    2   22 1
     6    3    4 ar
     7    3   23 1
     8    4    5 ar
     9    4    7 1
    10    5    6 ar
    11    5   24 1
    12    6   25 1
    13    7    8 1
    14    7   26 1
    15    7   27 1
    16    8    9 2
    17    8   10 2
    18    8   11 1
    19   11   12 1
    20   12   17 ar
    21   12   13 ar
    22   13   14 ar
    23   13   20 1
    24   14   15 ar
    25   14   28 1
    26   15   16 ar
    27   15   19 1
    28   16   17 ar
    29   16   29 1
    30   17   18 1
@<TRIPOS>MOLECULE
ZINC06733037
   36    39     0     0     0
SMALL
USER_CHARGES

@<TRIPOS>ATOM
      1 C1         -0.0225    1.8097    0.0120 C.3       1 <0>        -0.1416
      2 S1          0.0021   -0.0041    0.0020 S.3       1 <0>        -0.1329
      3 C2          0.8767   -0.4266    1.4721 C.ar      1 <0>        -0.0796
      4 C3          1.3490    0.5770    2.3124 C.ar      1 <0>        -0.1445
      5 C4          2.0325    0.2488    3.4623 C.ar      1 <0>        -0.0535
      6 C5          2.2513   -1.0911    3.7843 C.ar      1 <0>        -0.0190
      7 C6          1.7770   -2.0959    2.9405 C.ar      1 <0>        -0.0586
      8 C7          1.0893   -1.7636    1.7942 C.ar      1 <0>        -0.1121
      9 C8          2.9867   -1.4463    5.0203 C.ar      1 <0>         0.3976
     10 N1          3.4299   -0.4766    5.8092 N.ar      1 <0>        -0.5996
     11 C9          4.0933   -0.7597    6.9250 C.ar      1 <0>         0.4620
     12 O1          4.5443    0.2348    7.7280 O.3       1 <0>        -0.6839
     13 C10         4.3177   -2.0915    7.2572 C.ar      1 <0>        -0.3586
     14 C11         5.0657   -2.4408    8.5118 C.3       1 <0>         0.0082
     15 C12         5.5454   -3.8665    8.4580 C.ar      1 <0>        -0.1317
     16 C13         6.5409   -4.2792    9.3263 C.ar      1 <0>        -0.0895
     17 C14         6.9946   -5.5837    9.2951 C.ar      1 <0>        -0.1462
     18 C15         6.4545   -6.4825    8.3935 C.ar      1 <0>        -0.1003
     19 C16         5.4625   -6.0763    7.5244 C.ar      1 <0>        -0.1358
     20 C17         5.0036   -4.7639    7.5528 C.ar      1 <0>         0.1258
     21 O2          4.0297   -4.3870    6.6890 O.3       1 <0>        -0.2424
     22 C18         3.8396   -3.0807    6.4107 C.ar      1 <0>         0.3630
     23 N2          3.1796   -2.7256    5.3116 N.ar      1 <0>        -0.5978
     24 H1          1.0001    2.1870    0.0043 H         1 <0>         0.0837
     25 H2         -0.5497    2.1708   -0.8711 H         1 <0>         0.1050
     26 H3         -0.5327    2.1613    0.9088 H         1 <0>         0.0837
     27 H4          1.1798    1.6140    2.0626 H         1 <0>         0.1228
     28 H5          2.3992    1.0280    4.1140 H         1 <0>         0.1433
     29 H6          1.9456   -3.1336    3.1878 H         1 <0>         0.1427
     30 H7          0.7184   -2.5412    1.1428 H         1 <0>         0.1273
     31 H8          5.9230   -1.7758    8.6173 H         1 <0>         0.0820
     32 H9          4.4072   -2.3142    9.3711 H         1 <0>         0.0714
     33 H10         6.9642   -3.5790   10.0312 H         1 <0>         0.1267
     34 H11         7.7716   -5.9015    9.9746 H         1 <0>         0.1229
     35 H12         6.8092   -7.5023    8.3694 H         1 <0>         0.1279
     36 H13         5.0418   -6.7791    6.8205 H         1 <0>         0.1314
@<TRIPOS>BOND
     1    1    2 1
     2    1   24 1
     3    1   25 1
     4    1   26 1
     5    2    3 1
     6    3    8 ar
     7    3    4 ar
     8    4    5 ar
     9    4   27 1
    10    5    6 ar
    11    5   28 1
    12    6    7 ar
    13    6    9 1
    14    7    8 ar
    15    7   29 1
    16    8   30 1
    17    9   10 ar
    18    9   23 ar
    19   10   11 ar
    20   11   13 ar
    21   11   12 1
    22   13   22 ar
    23   13   14 1
    24   14   15 1
    25   14   31 1
    26   14   32 1
    27   15   20 ar
    28   15   16 ar
    29   16   17 ar
    30   16   33 1
    31   17   18 ar
    32   17   34 1
    33   18   19 ar
    34   18   35 1
    35   19   20 ar
    36   19   36 1
    37   20   21 1
    38   21   22 1
    39   22   23 ar
@<TRIPOS>MOLECULE
ZINC20589792
   28    30     0     0     0
SMALL
USER_CHARGES
4-(3-iodophenyl)-5-phenyl-1,2,4-triazole-3-thiol
@<TRIPOS>ATOM
      1 C1          6.2890    0.3695   -0.0557 C.ar      1 <0>        -0.1250
      2 C2          5.5394   -0.7517   -0.3647 C.ar      1 <0>        -0.1181
      3 C3          4.1614   -0.6886   -0.3531 C.ar      1 <0>        -0.0891
      4 C4          3.5234    0.5098   -0.0288 C.ar      1 <0>         0.0164
      5 C5          4.2857    1.6387    0.2764 C.ar      1 <0>        -0.1197
      6 C6          5.6630    1.5604    0.2667 C.ar      1 <0>        -0.1149
      7 C7          2.0473    0.5847   -0.0143 C.2       1 <0>         0.1529
      8 N1          1.2143   -0.4300   -0.0118 N.2       1 <0>        -0.2659
      9 N2          0.0021   -0.0041    0.0020 N.2       1 <0>        -0.3366
     10 C8         -0.0158    1.3103    0.0092 C.2       1 <0>         0.3840
     11 N3          1.2854    1.7327   -0.0009 N.pl3     1 <0>        -0.4565
     12 C9          1.7470    3.0563    0.0014 C.ar      1 <0>         0.1628
     13 C10         2.4498    3.5498   -1.0898 C.ar      1 <0>        -0.0911
     14 C11         2.8992    4.8557   -1.0870 C.ar      1 <0>        -0.1079
     15 C12         2.6592    5.6688    0.0055 C.ar      1 <0>        -0.0853
     16 C13         1.9639    5.1787    1.0962 C.ar      1 <0>        -0.0900
     17 C14         1.5072    3.8744    1.0968 C.ar      1 <0>        -0.0529
     18 I1          1.6035    6.4145    2.7491 I         1 <0>        -0.0395
     19 S1         -1.4481    2.3364    0.0219 S.3       1 <0>        -0.7812
     20 H1          7.3676    0.3147   -0.0659 H         1 <0>         0.1199
     21 H2          6.0344   -1.6782   -0.6159 H         1 <0>         0.1242
     22 H3          3.5775   -1.5646   -0.5942 H         1 <0>         0.1334
     23 H4          3.7981    2.5703    0.5235 H         1 <0>         0.1237
     24 H5          6.2538    2.4319    0.5073 H         1 <0>         0.1217
     25 H6          2.6416    2.9141   -1.9415 H         1 <0>         0.1303
     26 H7          3.4424    5.2411   -1.9372 H         1 <0>         0.1372
     27 H8          3.0155    6.6883    0.0073 H         1 <0>         0.1321
     28 H9          0.9641    3.4921    1.9484 H         1 <0>         0.1351
@<TRIPOS>BOND
     1    1    6 ar
     2    1    2 ar
     3    1   20 1
     4    2    3 ar
     5    2   21 1
     6    3    4 ar
     7    3   22 1
     8    4    5 ar
     9    4    7 1
    10    5    6 ar
    11    5   23 1
    12    6   24 1
    13    7   11 1
    14    7    8 2
    15    8    9 1
    16    9   10 2
    17   10   19 1
    18   10   11 1
    19   11   12 1
    20   12   17 ar
    21   12   13 ar
    22   13   14 ar
    23   13   25 1
    24   14   15 ar
    25   14   26 1
    26   15   16 ar
    27   15   27 1
    28   16   17 ar
    29   16   18 1
    30   17   28 1
@<TRIPOS>MOLECULE
ZINC04430735
   47    50     0     0     0
SMALL
USER_CHARGES
4-hydroxy-3-[(4-phenylcyclohexyl)methyl]naphthalene-1,2-dione
@<TRIPOS>ATOM
      1 C1          4.6482   11.3080    0.2599 C.ar      1 <0>        -0.1354
      2 C2          4.3229   11.6404   -1.0419 C.ar      1 <0>        -0.1252
      3 C3          3.1783   11.1255   -1.6213 C.ar      1 <0>        -0.1251
      4 C4          2.3593   10.2778   -0.8991 C.ar      1 <0>        -0.0607
      5 C5          2.6819    9.9495    0.4044 C.ar      1 <0>        -0.1053
      6 C6          3.8288   10.4610    0.9824 C.ar      1 <0>        -0.1203
      7 C7          1.1116    9.7164   -1.5307 C.3       1 <0>        -0.0499
      8 C8         -0.1108   10.1530   -0.7208 C.3       1 <0>        -0.1060
      9 C9         -1.3776    9.5831   -1.3621 C.3       1 <0>        -0.1113
     10 C10        -1.2970    8.0553   -1.3803 C.3       1 <0>        -0.0783
     11 C11        -0.0746    7.6187   -2.1902 C.3       1 <0>        -0.0933
     12 C12         1.1922    8.1886   -1.5489 C.3       1 <0>        -0.1191
     13 C13        -1.1721    7.5341    0.0528 C.3       1 <0>        -0.0051
     14 C14        -1.2162    6.0278    0.0451 C.2       1 <0>        -0.4499
     15 C15        -0.0487    5.3310    0.0307 C.2       1 <0>         0.3390
     16 C16        -0.0300    3.8581    0.0226 C.ar      1 <0>        -0.0398
     17 C17         1.1771    3.1650    0.0074 C.ar      1 <0>        -0.0921
     18 C18         1.1770    1.7793    0.0004 C.ar      1 <0>        -0.1049
     19 C19        -0.0126    1.0758    0.0080 C.ar      1 <0>        -0.1355
     20 C20        -1.2245    1.7486    0.0174 C.ar      1 <0>        -0.0750
     21 C21        -1.2407    3.1383    0.0308 C.ar      1 <0>        -0.1511
     22 C22        -2.5167    3.8846    0.0470 C.2       1 <0>         0.3606
     23 O1         -3.5800    3.3007    0.0540 O.2       1 <0>        -0.4335
     24 C23        -2.4609    5.3805    0.0540 C.2       1 <0>         0.3535
     25 O2         -3.4889    6.0311    0.0669 O.3       1 <0>        -0.5083
     26 O3          1.1216    6.0054    0.0227 O.2       1 <0>        -0.6312
     27 H1          5.5428   11.7097    0.7123 H         1 <0>         0.1140
     28 H2          4.9631   12.3021   -1.6063 H         1 <0>         0.1144
     29 H3          2.9241   11.3852   -2.6383 H         1 <0>         0.1155
     30 H4          2.0397    9.2908    0.9701 H         1 <0>         0.1269
     31 H5          4.0831   10.2010    1.9993 H         1 <0>         0.1173
     32 H6          1.0351   10.0992   -2.5591 H         1 <0>         0.0618
     33 H7         -0.0209    9.7782    0.3095 H         1 <0>         0.0691
     34 H8         -0.1687   11.2514   -0.7077 H         1 <0>         0.0485
     35 H9         -2.2564    9.8970   -0.7798 H         1 <0>         0.0559
     36 H10        -1.4675    9.9579   -2.3924 H         1 <0>         0.0492
     37 H11        -2.2077    7.6455   -1.8414 H         1 <0>         0.0561
     38 H12        -0.0167    6.5203   -2.2033 H         1 <0>         0.0631
     39 H13        -0.1644    7.9934   -3.2205 H         1 <0>         0.0313
     40 H14         2.0711    7.8747   -2.1312 H         1 <0>         0.0392
     41 H15         1.2821    7.8138   -0.5186 H         1 <0>         0.1254
     42 H16        -0.2176    7.8708    0.4835 H         1 <0>         0.0650
     43 H17        -2.0046    7.9222    0.6580 H         1 <0>         0.0371
     44 H18         2.1117    3.7061    0.0013 H         1 <0>         0.1384
     45 H19         2.1151    1.2442   -0.0115 H         1 <0>         0.1229
     46 H20         0.0021   -0.0041    0.0020 H         1 <0>         0.1232
     47 H21        -2.1520    1.1954    0.0185 H         1 <0>         0.1291
@<TRIPOS>BOND
     1    1    6 ar
     2    1    2 ar
     3    1   27 1
     4    2    3 ar
     5    2   28 1
     6    3    4 ar
     7    3   29 1
     8    4    5 ar
     9    4    7 1
    10    5    6 ar
    11    5   30 1
    12    6   31 1
    13    7   12 1
    14    7    8 1
    15    7   32 1
    16    8    9 1
    17    8   33 1
    18    8   34 1
    19    9   10 1
    20    9   35 1
    21    9   36 1
    22   10   11 1
    23   10   13 1
    24   10   37 1
    25   11   12 1
    26   11   38 1
    27   11   39 1
    28   12   40 1
    29   12   41 1
    30   13   42 1
    31   13   43 1
    32   13   14 1
    33   14   24 2
    34   14   15 1
    35   15   16 1
    36   15   26 2
    37   16   21 ar
    38   16   17 ar
    39   17   18 ar
    40   17   44 1
    41   18   19 ar
    42   18   45 1
    43   19   20 ar
    44   19   46 1
    45   20   21 ar
    46   20   47 1
    47   21   22 1
    48   22   23 2
    49   22   24 1
    50   24   25 1
@<TRIPOS>MOLECULE
ZINC12324867
   35    37     0     0     0
SMALL
USER_CHARGES

@<TRIPOS>ATOM
      1 C1         -0.0173    1.4248    0.0099 C.3       1 <0>         0.0258
      2 O1          0.0021   -0.0041    0.0020 O.3       1 <0>        -0.2948
      3 C2          0.6261   -0.6187    1.0420 C.ar      1 <0>         0.1554
      4 C3          1.2020    0.1370    2.0508 C.ar      1 <0>        -0.1946
      5 C4          1.8357   -0.4888    3.1078 C.ar      1 <0>        -0.0630
      6 C5          1.8972   -1.8702    3.1622 C.ar      1 <0>        -0.0663
      7 C6          1.3252   -2.6307    2.1588 C.ar      1 <0>        -0.0509
      8 C7          0.6829   -2.0088    1.0986 C.ar      1 <0>         0.1363
      9 N1          0.0959   -2.7789    0.0820 N.pl3     1 <0>        -0.4459
     10 C8          0.6912   -3.2216   -1.0690 C.2       1 <0>         0.1274
     11 N2         -0.2033   -3.8988   -1.7321 N.2       1 <0>        -0.2816
     12 N3         -1.3141   -3.9154   -1.0862 N.2       1 <0>        -0.3431
     13 C9         -1.1878   -3.2483    0.0377 C.2       1 <0>         0.3902
     14 S1         -2.4367   -3.0012    1.2558 S.3       1 <0>        -0.7987
     15 C10         2.1162   -2.9716   -1.4908 C.3       1 <0>         0.0201
     16 C11         2.9968   -4.0757   -0.9650 C.ar      1 <0>        -0.0150
     17 C12         3.5827   -3.9574    0.2812 C.ar      1 <0>        -0.1596
     18 C13         4.3924   -4.9711    0.7652 C.ar      1 <0>         0.1322
     19 C14         4.6146   -6.1034    0.0007 C.ar      1 <0>        -0.1974
     20 C15         4.0269   -6.2210   -1.2470 C.ar      1 <0>         0.1307
     21 C16         3.2134   -5.2084   -1.7268 C.ar      1 <0>        -0.1448
     22 F1          4.2429   -7.3257   -1.9942 F         1 <0>        -0.1319
     23 F2          4.9657   -4.8547    1.9830 F         1 <0>        -0.1295
     24 Cl1         2.6946   -2.6501    4.4925 Cl        1 <0>        -0.0659
     25 H1          1.0053    1.8021    0.0021 H         1 <0>         0.0552
     26 H2         -0.5445    1.7859   -0.8732 H         1 <0>         0.1010
     27 H3         -0.5275    1.7763    0.9067 H         1 <0>         0.0584
     28 H4          1.1560    1.2153    2.0109 H         1 <0>         0.1431
     29 H5          2.2843    0.1018    3.8929 H         1 <0>         0.1394
     30 H6          1.3749   -3.7087    2.2030 H         1 <0>         0.1397
     31 H7          2.1741   -2.9478   -2.5790 H         1 <0>         0.1081
     32 H8          2.4521   -2.0161   -1.0881 H         1 <0>         0.0871
     33 H9          3.4092   -3.0738    0.8775 H         1 <0>         0.1386
     34 H10         5.2462   -6.8943    0.3773 H         1 <0>         0.1460
     35 H11         2.7512   -5.3019   -2.6984 H         1 <0>         0.1484
@<TRIPOS>BOND
     1    1    2 1
     2    1   25 1
     3    1   26 1
     4    1   27 1
     5    2    3 1
     6    3    8 ar
     7    3    4 ar
     8    4    5 ar
     9    4   28 1
    10    5    6 ar
    11    5   29 1
    12    6    7 ar
    13    6   24 1
    14    7    8 ar
    15    7   30 1
    16    8    9 1
    17    9   13 1
    18    9   10 1
    19   10   11 2
    20   10   15 1
    21   11   12 1
    22   12   13 2
    23   13   14 1
    24   15   16 1
    25   15   31 1
    26   15   32 1
    27   16   21 ar
    28   16   17 ar
    29   17   18 ar
    30   17   33 1
    31   18   19 ar
    32   18   23 1
    33   19   20 ar
    34   19   34 1
    35   20   21 ar
    36   20   22 1
    37   21   35 1
@<TRIPOS>MOLECULE
ZINC49185909
   20    21     0     0     0
SMALL
USER_CHARGES

@<TRIPOS>ATOM
      1 C1         -0.0169    1.3979    0.0097 C.ar      1 <0>         0.0200
      2 C2          1.1587    2.0881    0.0022 C.ar      1 <0>        -0.1527
      3 C3          2.3799    1.4177   -0.0130 C.ar      1 <0>        -0.0313
      4 C4          2.4334    0.0566   -0.0213 C.ar      1 <0>        -0.0967
      5 C5          1.2410   -0.6887   -0.0139 C.ar      1 <0>         0.2131
      6 C6          0.0021   -0.0041    0.0020 C.ar      1 <0>        -0.1904
      7 C7         -1.1952   -0.7560    0.0089 C.ar      1 <0>         0.3291
      8 O1         -2.4050   -0.1439    0.0232 O.3       1 <0>        -0.6579
      9 C8         -1.0940   -2.1351    0.0001 C.ar      1 <0>        -0.3075
     10 C9          0.1601   -2.7339   -0.0150 C.ar      1 <0>         0.1237
     11 N1          1.2648   -2.0262   -0.0222 N.ar      1 <0>        -0.5378
     12 C10         0.2535   -4.2380   -0.0244 C.3       1 <0>         0.5192
     13 F1          0.2702   -4.6959   -1.3462 F         1 <0>        -0.1782
     14 F2          1.4287   -4.6363    0.6219 F         1 <0>        -0.1703
     15 F3         -0.8514   -4.7781    0.6423 F         1 <0>        -0.1765
     16 Br1         4.1050   -0.8272   -0.0431 Br        1 <0>        -0.0424
     17 Br2         1.1315    3.9789    0.0119 Br        1 <0>        -0.0656
     18 H1         -0.9577    1.9280    0.0261 H         1 <0>         0.1410
     19 H2          3.2983    1.9859   -0.0187 H         1 <0>         0.1350
     20 H3         -1.9858   -2.7443    0.0053 H         1 <0>         0.1263
@<TRIPOS>BOND
     1    1    6 ar
     2    1    2 ar
     3    1   18 1
     4    2    3 ar
     5    2   17 1
     6    3    4 ar
     7    3   19 1
     8    4    5 ar
     9    4   16 1
    10    5   11 ar
    11    5    6 ar
    12    6    7 ar
    13    7    8 1
    14    7    9 ar
    15    9   10 ar
    16    9   20 1
    17   10   11 ar
    18   10   12 1
    19   12   13 1
    20   12   14 1
    21   12   15 1
@<TRIPOS>MOLECULE
ZINC14229835
   40    42     0     0     0
SMALL
USER_CHARGES

@<TRIPOS>ATOM
      1 C1         -1.9553   -8.2735    5.2857 C.3       1 <0>        -0.0987
      2 C2         -1.3486   -7.5780    4.0944 C.ar      1 <0>        -0.0865
      3 C3         -1.2636   -8.2373    2.8953 C.ar      1 <0>        -0.1032
      4 C4         -0.7132   -7.6342    1.7743 C.ar      1 <0>        -0.1563
      5 C5         -0.2386   -6.3379    1.8668 C.ar      1 <0>        -0.0537
      6 C6         -0.3197   -5.6707    3.0627 C.ar      1 <0>        -0.1573
      7 C7         -0.8788   -6.2512    4.2240 C.ar      1 <0>         0.1624
      8 N1         -0.8926   -5.4650    5.3229 N.2       1 <0>        -0.5971
      9 C8         -0.4227   -4.2383    5.3183 C.2       1 <0>         0.5248
     10 S1          0.1445   -4.0535    3.6335 S.3       1 <0>        -0.2219
     11 N2         -0.3714   -3.3274    6.3537 N.2       1 <0>        -1.0021
     12 S2          0.2751   -1.8236    6.1022 S.o2      1 <0>         2.6255
     13 O1          1.6579   -2.0152    5.8369 O.2       1 <0>        -0.9981
     14 O2         -0.5898   -1.1567    5.1930 O.2       1 <0>        -1.0005
     15 C9          0.1714   -0.9500    7.6288 C.ar      1 <0>        -0.6414
     16 C10         1.2805   -0.8572    8.4487 C.ar      1 <0>         0.0274
     17 C11         1.1992   -0.1718    9.6464 C.ar      1 <0>        -0.1611
     18 C12         0.0089    0.4211   10.0240 C.ar      1 <0>        -0.0357
     19 C13        -1.0999    0.3291    9.2037 C.ar      1 <0>        -0.1612
     20 C14        -1.0174   -0.3526    8.0040 C.ar      1 <0>         0.0369
     21 C15        -2.2248   -0.4486    7.1072 C.3       1 <0>        -0.1844
     22 C16        -0.0800    1.1675   11.3302 C.3       1 <0>        -0.1168
     23 C17         2.5781   -1.5036    8.0371 C.3       1 <0>        -0.1401
     24 H1         -3.0290   -8.0868    5.3076 H         1 <0>         0.0604
     25 H2         -1.7743   -9.3458    5.2115 H         1 <0>         0.0540
     26 H3         -1.5013   -7.8908    6.1999 H         1 <0>         0.0716
     27 H4         -1.6334   -9.2493    2.8221 H         1 <0>         0.1172
     28 H5         -0.6552   -8.1710    0.8390 H         1 <0>         0.1216
     29 H6          0.1932   -5.8544    1.0030 H         1 <0>         0.1174
     30 H7          2.0655   -0.0999   10.2873 H         1 <0>         0.1256
     31 H8         -2.0299    0.7921    9.4989 H         1 <0>         0.1254
     32 H9         -2.7236   -1.4039    7.2704 H         1 <0>         0.0845
     33 H10        -2.9133    0.3647    7.3367 H         1 <0>         0.0674
     34 H11        -1.9107   -0.3759    6.0660 H         1 <0>         0.1339
     35 H12         0.1792    2.2139   11.1691 H         1 <0>         0.0729
     36 H13        -1.0963    1.1005   11.7185 H         1 <0>         0.0682
     37 H14         0.6128    0.7279   12.0478 H         1 <0>         0.0682
     38 H15         3.1137   -0.8419    7.3564 H         1 <0>         0.0855
     39 H16         3.1889   -1.6874    8.9210 H         1 <0>         0.0612
     40 H17         2.3701   -2.4491    7.5361 H         1 <0>         0.1041
@<TRIPOS>BOND
     1    1    2 1
     2    1   24 1
     3    1   25 1
     4    1   26 1
     5    2    7 ar
     6    2    3 ar
     7    3    4 ar
     8    3   27 1
     9    4    5 ar
    10    4   28 1
    11    5    6 ar
    12    5   29 1
    13    6   10 1
    14    6    7 ar
    15    7    8 1
    16    8    9 2
    17    9   10 1
    18    9   11 1
    19   11   12 1
    20   12   13 2
    21   12   14 2
    22   12   15 1
    23   15   20 ar
    24   15   16 ar
    25   16   17 ar
    26   16   23 1
    27   17   18 ar
    28   17   30 1
    29   18   19 ar
    30   18   22 1
    31   19   20 ar
    32   19   31 1
    33   20   21 1
    34   21   32 1
    35   21   33 1
    36   21   34 1
    37   22   35 1
    38   22   36 1
    39   22   37 1
    40   23   38 1
    41   23   39 1
    42   23   40 1
@<TRIPOS>MOLECULE
ZINC02357778
   40    42     0     0     0
SMALL
USER_CHARGES

@<TRIPOS>ATOM
      1 C1         -0.0187    1.5258    0.0104 C.3       1 <0>        -0.1396
      2 C2          0.0021   -0.0041    0.0020 C.3       1 <0>        -0.1274
      3 S1         -1.6997   -0.6320    0.0149 S.3       1 <0>        -0.0566
      4 C3         -1.5080   -2.3834    0.0037 C.2       1 <0>         0.1713
      5 C4         -2.6055   -3.1866    0.0042 C.2       1 <0>        -0.1001
      6 C5         -2.4711   -4.6809   -0.0141 C.3       1 <0>         0.0808
      7 H1         -3.1987   -5.1136    0.6726 H         1 <0>         0.1095
      8 C6         -1.0855   -5.1078    0.4002 C.2       1 <0>        -0.2640
      9 C7         -0.0554   -4.2353    0.3796 C.2       1 <0>         0.2195
     10 N1         -0.2485   -2.9363   -0.0113 N.pl3     1 <0>        -0.6387
     11 C8          1.3356   -4.6664    0.7751 C.3       1 <0>        -0.0974
     12 C9          1.2504   -5.7709    1.8308 C.3       1 <0>        -0.1107
     13 C10         0.4502   -6.9400    1.2472 C.3       1 <0>        -0.1675
     14 C11        -0.8990   -6.4396    0.8093 C.2       1 <0>         0.3967
     15 O1         -1.8459   -7.2011    0.8095 O.2       1 <0>        -0.4509
     16 C12        -2.7463   -5.1848   -1.4074 C.ar      1 <0>        -0.0544
     17 C13        -1.9576   -4.7654   -2.4625 C.ar      1 <0>        -0.0911
     18 C14        -2.2093   -5.2270   -3.7408 C.ar      1 <0>        -0.1051
     19 C15        -3.2504   -6.1083   -3.9658 C.ar      1 <0>        -0.1001
     20 C16        -4.0405   -6.5289   -2.9115 C.ar      1 <0>        -0.0315
     21 C17        -3.7844   -6.0712   -1.6298 C.ar      1 <0>        -0.0136
     22 Cl1        -4.7704   -6.6041   -0.3040 Cl        1 <0>        -0.0330
     23 Cl2        -5.3480   -7.6355   -3.1935 Cl        1 <0>        -0.0475
     24 C18        -3.9102   -2.5968    0.0221 C.1       1 <0>         0.2541
     25 N2         -4.9452   -2.1288    0.0362 N.1       1 <0>        -0.3998
     26 H2          1.0039    1.9031    0.0027 H         1 <0>         0.0828
     27 H3         -0.5459    1.8868   -0.8726 H         1 <0>         0.0708
     28 H4         -0.5289    1.8773    0.9072 H         1 <0>         0.0707
     29 H5          0.5123   -0.3556   -0.8948 H         1 <0>         0.0924
     30 H6          0.5293   -0.3651    0.8851 H         1 <0>         0.0949
     31 H7          0.5081   -2.4010   -0.2974 H         1 <0>         0.4182
     32 H8          1.8621   -5.0425   -0.1020 H         1 <0>         0.1024
     33 H9          1.8770   -3.8137    1.1849 H         1 <0>         0.0913
     34 H10         2.2541   -6.1075    2.0905 H         1 <0>         0.0887
     35 H11         0.7473   -5.3901    2.7196 H         1 <0>         0.0766
     36 H12         0.9815   -7.3538    0.3901 H         1 <0>         0.1011
     37 H13         0.3242   -7.7111    2.0071 H         1 <0>         0.0993
     38 H14        -1.1444   -4.0764   -2.2879 H         1 <0>         0.1278
     39 H15        -1.5925   -4.8987   -4.5644 H         1 <0>         0.1378
     40 H16        -3.4470   -6.4680   -4.9650 H         1 <0>         0.1422
@<TRIPOS>BOND
     1    1    2 1
     2    1   26 1
     3    1   27 1
     4    1   28 1
     5    2    3 1
     6    2   29 1
     7    2   30 1
     8    3    4 1
     9    4   10 1
    10    4    5 2
    11    5    6 1
    12    5   24 1
    13    6    7 1
    14    6    8 1
    15    6   16 1
    16    8   14 1
    17    8    9 2
    18    9   10 1
    19    9   11 1
    20   10   31 1
    21   11   12 1
    22   11   32 1
    23   11   33 1
    24   12   13 1
    25   12   34 1
    26   12   35 1
    27   13   14 1
    28   13   36 1
    29   13   37 1
    30   14   15 2
    31   16   21 ar
    32   16   17 ar
    33   17   18 ar
    34   17   38 1
    35   18   19 ar
    36   18   39 1
    37   19   20 ar
    38   19   40 1
    39   20   21 ar
    40   20   23 1
    41   21   22 1
    42   24   25 3
@<TRIPOS>MOLECULE
ZINC06139402
   42    45     0     0     0
SMALL
USER_CHARGES
5-(4-fluorophenyl)-4-[(3-phenoxyphenyl)methyleneamino]-1,2,4-triazole-3-thiol
@<TRIPOS>ATOM
      1 C1         -0.8665    5.1330    3.6260 C.ar      1 <0>        -0.1543
      2 C2         -1.9629    4.2906    3.6202 C.ar      1 <0>        -0.0800
      3 C3         -2.4822    3.8393    2.4224 C.ar      1 <0>        -0.1916
      4 C4         -1.9092    4.2405    1.2240 C.ar      1 <0>         0.1208
      5 C5         -0.8090    5.0860    1.2327 C.ar      1 <0>        -0.1478
      6 C6         -0.2903    5.5302    2.4335 C.ar      1 <0>        -0.0853
      7 O1         -2.4214    3.8021    0.0442 O.3       1 <0>        -0.2569
      8 C7         -3.5078    2.9868    0.0840 C.ar      1 <0>         0.0737
      9 C8         -3.3401    1.6092    0.1416 C.ar      1 <0>        -0.1041
     10 C9         -4.4413    0.7747    0.1881 C.ar      1 <0>        -0.1111
     11 C10        -5.7154    1.3042    0.1661 C.ar      1 <0>        -0.0623
     12 C11        -5.8946    2.6880    0.1025 C.ar      1 <0>        -0.0461
     13 C12        -4.7813    3.5296    0.0615 C.ar      1 <0>        -0.0866
     14 C13        -7.2548    3.2580    0.0784 C.2       1 <0>         0.1686
     15 N1         -8.2876    2.4737    0.1167 N.2       1 <0>        -0.2196
     16 N2         -9.5796    3.0151    0.0938 N.pl3     1 <0>        -0.3653
     17 C14       -10.3501    3.2863   -1.0162 C.2       1 <0>         0.1499
     18 N3        -11.4864    3.7833   -0.5837 N.2       1 <0>        -0.2613
     19 N4        -11.4814    3.8415    0.6998 N.2       1 <0>        -0.3281
     20 C15       -10.3437    3.3803    1.1697 C.2       1 <0>         0.3839
     21 S1         -9.8858    3.2586    2.8669 S.3       1 <0>        -0.7829
     22 C16        -9.9700    3.0601   -2.4263 C.ar      1 <0>         0.0120
     23 C17        -8.6352    2.8290   -2.7636 C.ar      1 <0>        -0.0941
     24 C18        -8.2869    2.6128   -4.0804 C.ar      1 <0>        -0.1446
     25 C19        -9.2576    2.6360   -5.0693 C.ar      1 <0>         0.0898
     26 C20       -10.5833    2.8706   -4.7408 C.ar      1 <0>        -0.1473
     27 C21       -10.9437    3.0824   -3.4265 C.ar      1 <0>        -0.0607
     28 F1         -8.9100    2.4296   -6.3584 F         1 <0>        -0.1426
     29 H1         -0.4592    5.4812    4.5637 H         1 <0>         0.1239
     30 H2         -2.4108    3.9816    4.5530 H         1 <0>         0.1270
     31 H3         -3.3359    3.1777    2.4185 H         1 <0>         0.1305
     32 H4         -0.3584    5.3962    0.3015 H         1 <0>         0.1312
     33 H5          0.5662    6.1880    2.4408 H         1 <0>         0.1293
     34 H6         -2.3454    1.1885    0.1546 H         1 <0>         0.1341
     35 H7         -4.3040   -0.2954    0.2372 H         1 <0>         0.1380
     36 H8         -6.5734    0.6491    0.1984 H         1 <0>         0.1443
     37 H9         -4.9130    4.6003    0.0119 H         1 <0>         0.1391
     38 H10        -7.3935    4.3480    0.0280 H         1 <0>         0.1272
     39 H11        -7.8772    2.8155   -1.9943 H         1 <0>         0.1280
     40 H12        -7.2552    2.4295   -4.3420 H         1 <0>         0.1362
     41 H13       -11.3357    2.8880   -5.5155 H         1 <0>         0.1392
     42 H14       -11.9771    3.2655   -3.1717 H         1 <0>         0.1458
@<TRIPOS>BOND
     1    1    6 ar
     2    1    2 ar
     3    1   29 1
     4    2    3 ar
     5    2   30 1
     6    3    4 ar
     7    3   31 1
     8    4    5 ar
     9    4    7 1
    10    5    6 ar
    11    5   32 1
    12    6   33 1
    13    7    8 1
    14    8   13 ar
    15    8    9 ar
    16    9   10 ar
    17    9   34 1
    18   10   11 ar
    19   10   35 1
    20   11   12 ar
    21   11   36 1
    22   12   13 ar
    23   12   14 1
    24   13   37 1
    25   14   15 2
    26   14   38 1
    27   15   16 1
    28   16   20 1
    29   16   17 1
    30   17   18 2
    31   17   22 1
    32   18   19 1
    33   19   20 2
    34   20   21 1
    35   22   27 ar
    36   22   23 ar
    37   23   24 ar
    38   23   39 1
    39   24   25 ar
    40   24   40 1
    41   25   26 ar
    42   25   28 1
    43   26   27 ar
    44   26   41 1
    45   27   42 1
@<TRIPOS>MOLECULE
ZINC25502080
   40    42     0     0     0
SMALL
USER_CHARGES
5-[(2-chlorophenyl)methyl]-2-[(4-fluorophenyl)methylsulfanyl]-6-methyl-pyrimidin-4-ol
@<TRIPOS>ATOM
      1 C1          3.8462    2.1215   -0.4025 C.3       1 <0>        -0.1129
      2 C2          2.5597    1.3585   -0.2187 C.ar      1 <0>         0.1799
      3 C3          1.3587    2.0325   -0.0967 C.ar      1 <0>        -0.2975
      4 C4          0.1919    1.2884    0.0718 C.ar      1 <0>         0.4512
      5 N1          0.2714   -0.0361    0.1095 N.ar      1 <0>        -0.6142
      6 C5          1.4416   -0.6462   -0.0111 C.ar      1 <0>         0.3281
      7 N2          2.5671    0.0352   -0.1723 N.ar      1 <0>        -0.5898
      8 S1          1.5029   -2.4063    0.0442 S.3       1 <0>        -0.0467
      9 C6         -0.2545   -2.7750    0.2711 C.3       1 <0>        -0.0604
     10 C7         -0.4487   -4.2675    0.3479 C.ar      1 <0>        -0.0742
     11 C8         -0.6879   -4.9931   -0.8043 C.ar      1 <0>        -0.0742
     12 C9         -0.8615   -6.3624   -0.7357 C.ar      1 <0>        -0.1532
     13 C10        -0.8062   -7.0062    0.4890 C.ar      1 <0>         0.0923
     14 C11        -0.5718   -6.2777    1.6428 C.ar      1 <0>        -0.1532
     15 C12        -0.3933   -4.9092    1.5711 C.ar      1 <0>        -0.0741
     16 F1         -0.9803   -8.3441    0.5578 F         1 <0>        -0.1437
     17 O1         -1.0073    1.9083    0.1899 O.3       1 <0>        -0.6683
     18 C13         1.3120    3.5380   -0.1448 C.3       1 <0>        -0.0115
     19 C14         1.2649    3.9936   -1.5805 C.ar      1 <0>        -0.0464
     20 C15         2.4377    4.1460   -2.2962 C.ar      1 <0>        -0.1250
     21 C16         2.3944    4.5592   -3.6144 C.ar      1 <0>        -0.1244
     22 C17         1.1789    4.8304   -4.2150 C.ar      1 <0>        -0.1261
     23 C18         0.0060    4.6834   -3.4990 C.ar      1 <0>        -0.1202
     24 C19         0.0485    4.2648   -2.1807 C.ar      1 <0>        -0.0324
     25 Cl1        -1.4244    4.0794   -1.2807 Cl        1 <0>        -0.0272
     26 H1          4.6846    1.4136   -0.4791 H         1 <0>         0.0678
     27 H2          4.0048    2.7858    0.4598 H         1 <0>         0.0687
     28 H3          3.7881    2.7221   -1.3222 H         1 <0>         0.0807
     29 H4         -0.8259   -2.3742   -0.5791 H         1 <0>         0.1040
     30 H5         -0.6092   -2.3106    1.2029 H         1 <0>         0.1043
     31 H6         -0.7351   -4.4902   -1.7589 H         1 <0>         0.1363
     32 H7         -1.0442   -6.9296   -1.6363 H         1 <0>         0.1349
     33 H8         -0.5281   -6.7788    2.5985 H         1 <0>         0.1349
     34 H9         -0.2102   -4.3409    2.4710 H         1 <0>         0.1364
     35 H10         2.2096    3.9484    0.3408 H         1 <0>         0.0611
     36 H11         0.4146    3.8940    0.3825 H         1 <0>         0.0898
     37 H12         3.3878    3.9386   -1.8264 H         1 <0>         0.1379
     38 H13         3.3107    4.6745   -4.1743 H         1 <0>         0.1207
     39 H14         1.1459    5.1576   -5.2437 H         1 <0>         0.1219
     40 H15        -0.9433    4.8957   -3.9680 H         1 <0>         0.1246
@<TRIPOS>BOND
     1    1   26 1
     2    1   27 1
     3    1   28 1
     4    1    2 1
     5    2    3 ar
     6    2    7 ar
     7    3    4 ar
     8    3   18 1
     9    4    5 ar
    10    4   17 1
    11    5    6 ar
    12    6    7 ar
    13    6    8 1
    14    8    9 1
    15    9   10 1
    16    9   29 1
    17    9   30 1
    18   10   15 ar
    19   10   11 ar
    20   11   12 ar
    21   11   31 1
    22   12   13 ar
    23   12   32 1
    24   13   14 ar
    25   13   16 1
    26   14   15 ar
    27   14   33 1
    28   15   34 1
    29   18   19 1
    30   18   35 1
    31   18   36 1
    32   19   24 ar
    33   19   20 ar
    34   20   21 ar
    35   20   37 1
    36   21   22 ar
    37   21   38 1
    38   22   23 ar
    39   22   39 1
    40   23   24 ar
    41   23   40 1
    42   24   25 1
@<TRIPOS>MOLECULE
ZINC03903751
   45    47     0     0     0
SMALL
USER_CHARGES

@<TRIPOS>ATOM
      1 C1         -0.2508    1.2984    0.7523 C.3       1 <0>        -0.1125
      2 C2         -0.0724   -0.1713    0.4709 C.2       1 <0>        -0.0835
      3 C3          0.1865   -0.5293   -0.7458 C.2       1 <0>        -0.1571
      4 C4          0.3988   -1.9509   -1.1769 C.3       1 <0>        -0.0541
      5 C5         -0.1406   -2.9102   -0.1137 C.3       1 <0>        -0.1417
      6 C6          0.4105   -2.4806    1.2519 C.3       1 <0>        -0.0076
      7 H1          1.4950   -2.3861    1.1960 H         1 <0>         0.0696
      8 C7         -0.2000   -1.1283    1.6198 C.3       1 <0>        -0.0704
      9 C8          0.0445   -3.5080    2.2918 C.ar      1 <0>        -0.0597
     10 C9         -1.2814   -3.7110    2.6262 C.ar      1 <0>        -0.0930
     11 C10        -1.6171   -4.6534    3.5802 C.ar      1 <0>        -0.1290
     12 C11        -0.6270   -5.3931    4.1995 C.ar      1 <0>        -0.1313
     13 C12         0.6988   -5.1907    3.8645 C.ar      1 <0>        -0.1369
     14 C13         1.0342   -4.2513    2.9074 C.ar      1 <0>        -0.0780
     15 C14         0.3103   -4.3146   -0.4229 C.2       1 <0>         0.5696
     16 O1          0.9889   -4.9238    0.3773 O.2       1 <0>        -0.5065
     17 N1         -0.0402   -4.8937   -1.5883 N.am      1 <0>        -0.5591
     18 N2          0.3790   -6.1992   -1.8757 N.2       1 <0>        -0.2010
     19 C15         0.0407   -6.7581   -3.0004 C.2       1 <0>         0.1051
     20 C16         0.4795   -8.1246   -3.3013 C.2       1 <0>        -0.0970
     21 C17         0.2371   -8.8909   -4.4283 C.2       1 <0>        -0.1423
     22 C18         0.7613  -10.1614   -4.4799 C.2       1 <0>        -0.1564
     23 C19         1.4945  -10.6214   -3.4326 C.2       1 <0>        -0.1937
     24 S1          1.4725   -9.2314   -2.3129 S.3       1 <0>         0.1061
     25 C20        -1.6463   -2.8499   -0.0941 C.2       1 <0>         0.5150
     26 O2         -2.2986   -3.8769   -0.1723 O.co2     1 <0>        -0.6811
     27 O3         -2.2121   -1.7740    0.0001 O.co2     1 <0>        -0.6633
     28 H2          0.7134    1.7397    1.0045 H         1 <0>         0.0555
     29 H3         -0.6558    1.7910   -0.1317 H         1 <0>         0.0562
     30 H4         -0.9391    1.4275    1.5876 H         1 <0>         0.0586
     31 H5          0.2536    0.2432   -1.4975 H         1 <0>         0.0947
     32 H6         -0.1225   -2.1247   -2.1182 H         1 <0>         0.0628
     33 H7          1.4647   -2.1304   -1.3180 H         1 <0>         0.0590
     34 H8          0.3168   -0.7207    2.4887 H         1 <0>         0.0574
     35 H9         -1.2542   -1.2653    1.8605 H         1 <0>         0.0978
     36 H10        -2.0549   -3.1332    2.1423 H         1 <0>         0.1312
     37 H11        -2.6529   -4.8116    3.8419 H         1 <0>         0.1113
     38 H12        -0.8893   -6.1289    4.9453 H         1 <0>         0.1090
     39 H13         1.4723   -5.7683    4.3486 H         1 <0>         0.1097
     40 H14         2.0697   -4.0958    2.6430 H         1 <0>         0.1111
     41 H15        -0.5827   -4.4065   -2.2280 H         1 <0>         0.3896
     42 H16        -0.5633   -6.2157   -3.7127 H         1 <0>         0.1324
     43 H17        -0.3496   -8.5008   -5.2468 H         1 <0>         0.1373
     44 H18         0.5916  -10.7870   -5.3437 H         1 <0>         0.1327
     45 H19         1.9727  -11.5821   -3.3105 H         1 <0>         0.1837
@<TRIPOS>BOND
     1    1    2 1
     2    1   28 1
     3    1   29 1
     4    1   30 1
     5    2    8 1
     6    2    3 2
     7    3    4 1
     8    3   31 1
     9    4    5 1
    10    4   32 1
    11    4   33 1
    12    5    6 1
    13    5   15 1
    14    5   25 1
    15    6    7 1
    16    6    8 1
    17    6    9 1
    18    8   34 1
    19    8   35 1
    20    9   14 ar
    21    9   10 ar
    22   10   11 ar
    23   10   36 1
    24   11   12 ar
    25   11   37 1
    26   12   13 ar
    27   12   38 1
    28   13   14 ar
    29   13   39 1
    30   14   40 1
    31   15   16 2
    32   15   17 am
    33   17   18 1
    34   17   41 1
    35   18   19 2
    36   19   20 1
    37   19   42 1
    38   20   24 1
    39   20   21 2
    40   21   22 1
    41   21   43 1
    42   22   23 2
    43   22   44 1
    44   23   24 1
    45   23   45 1
    46   25   26 2
    47   25   27 1
@<TRIPOS>MOLECULE
ZINC48606409
   26    28     0     0     0
SMALL
USER_CHARGES

@<TRIPOS>ATOM
      1 C1         -0.0167    1.3791    0.0096 C.ar      1 <0>        -0.1130
      2 C2          1.1686    2.0923    0.0021 C.ar      1 <0>        -0.1380
      3 C3          2.3774    1.4267   -0.0135 C.ar      1 <0>        -0.0698
      4 C4          2.4025    0.0330   -0.0212 C.ar      1 <0>        -0.0309
      5 C5          1.2049   -0.6804   -0.0131 C.ar      1 <0>        -0.0715
      6 C6          0.0021   -0.0041    0.0020 C.ar      1 <0>        -0.1391
      7 C7          3.6981   -0.6880   -0.0385 C.ar      1 <0>         0.4155
      8 N1          4.8248    0.0232   -0.0408 N.ar      1 <0>        -0.6231
      9 C8          6.0098   -0.5625   -0.0559 C.ar      1 <0>         0.4784
     10 O1          7.1461    0.1718   -0.0577 O.3       1 <0>        -0.6520
     11 C9          6.0602   -1.9770   -0.0696 C.ar      1 <0>        -0.2331
     12 C10         7.2728   -2.6759   -0.0853 C.ar      1 <0>         0.0295
     13 C11         7.2627   -4.0404   -0.0977 C.ar      1 <0>        -0.1597
     14 C12         6.0624   -4.7473   -0.0948 C.ar      1 <0>        -0.0221
     15 C13         4.8641   -4.0967   -0.0800 C.ar      1 <0>        -0.1080
     16 C14         4.8377   -2.6936   -0.0665 C.ar      1 <0>         0.2320
     17 N2          3.6877   -2.0075   -0.0454 N.ar      1 <0>        -0.5910
     18 Br1         3.2482   -5.0789   -0.0777 Br        1 <0>        -0.0446
     19 Br2         8.9009   -4.9848   -0.1197 Br        1 <0>        -0.0670
     20 H1         -0.9603    1.9042    0.0260 H         1 <0>         0.1167
     21 H2          1.1479    3.1721    0.0082 H         1 <0>         0.1207
     22 H3          3.3022    1.9845   -0.0200 H         1 <0>         0.1383
     23 H4          1.2184   -1.7603   -0.0194 H         1 <0>         0.1374
     24 H5         -0.9264   -0.5557    0.0079 H         1 <0>         0.1201
     25 H6          8.2098   -2.1390   -0.0881 H         1 <0>         0.1399
     26 H7          6.0811   -5.8271   -0.1048 H         1 <0>         0.1343
@<TRIPOS>BOND
     1    1    6 ar
     2    1    2 ar
     3    1   20 1
     4    2    3 ar
     5    2   21 1
     6    3    4 ar
     7    3   22 1
     8    4    5 ar
     9    4    7 1
    10    5    6 ar
    11    5   23 1
    12    6   24 1
    13    7   17 ar
    14    7    8 ar
    15    8    9 ar
    16    9   10 1
    17    9   11 ar
    18   11   16 ar
    19   11   12 ar
    20   12   13 ar
    21   12   25 1
    22   13   14 ar
    23   13   19 1
    24   14   15 ar
    25   14   26 1
    26   15   16 ar
    27   15   18 1
    28   16   17 ar
@<TRIPOS>MOLECULE
ZINC63653184
   42    44     0     0     0
SMALL
USER_CHARGES

@<TRIPOS>ATOM
      1 C1         -0.0184    1.5028    0.0103 C.3       1 <0>        -0.0869
      2 C2          0.0021   -0.0041    0.0020 C.2       1 <0>        -0.0429
      3 C3         -1.0863   -0.7768    0.0030 C.2       1 <0>        -0.1392
      4 C4         -0.5311   -2.1901   -0.0073 C.3       1 <0>         0.0476
      5 H1         -0.8370   -2.7309    0.8883 H         1 <0>         0.1639
      6 N1          0.9257   -1.9734   -0.0130 N.2       1 <0>        -0.1459
      7 N2          1.1248   -0.7562   -0.0132 N.2       1 <0>        -0.1531
      8 C5         -0.9692   -2.9257   -1.2475 C.2       1 <0>        -0.1334
      9 C6         -1.9747   -3.8222   -1.3978 C.2       1 <0>        -0.1541
     10 C7         -2.1978   -4.3765   -2.6442 C.2       1 <0>        -0.0473
     11 C8         -1.4045   -4.0072   -3.6794 C.2       1 <0>        -0.6580
     12 S1         -0.3035   -2.8368   -2.9016 S.3       1 <0>         0.1815
     13 S2         -1.4519   -4.5393   -5.3585 S.o2      1 <0>         2.6267
     14 O1         -0.1498   -4.3304   -5.8876 O.2       1 <0>        -1.0202
     15 O2         -2.0807   -5.8136   -5.3631 O.2       1 <0>        -1.0194
     16 N3         -2.4634   -3.5095   -6.1701 N.2       1 <0>        -1.0882
     17 C9         -2.6954   -3.6904   -7.5355 C.ar      1 <0>         0.2762
     18 C10        -2.0829   -4.7371   -8.2129 C.ar      1 <0>        -0.2639
     19 C11        -2.3148   -4.9134   -9.5629 C.ar      1 <0>        -0.0609
     20 C12        -3.1553   -4.0491  -10.2403 C.ar      1 <0>        -0.1869
     21 C13        -3.7666   -3.0061   -9.5690 C.ar      1 <0>        -0.0712
     22 C14        -3.5436   -2.8275   -8.2178 C.ar      1 <0>        -0.1808
     23 C15        -3.4052   -4.2440  -11.7136 C.3       1 <0>        -0.0395
     24 C16        -4.8988   -4.4756  -11.9513 C.3       1 <0>        -0.1401
     25 C17        -2.9547   -2.9968  -12.4767 C.3       1 <0>        -0.1402
     26 H2          1.0042    1.8801    0.0026 H         1 <0>         0.0799
     27 H3         -0.5455    1.8639   -0.8728 H         1 <0>         0.0807
     28 H4         -0.5286    1.8543    0.9071 H         1 <0>         0.0780
     29 H5         -2.1213   -0.4684    0.0099 H         1 <0>         0.1769
     30 H6         -2.5921   -4.0995   -0.5562 H         1 <0>         0.1400
     31 H7         -2.9922   -5.0934   -2.7910 H         1 <0>         0.1485
     32 H8         -1.4258   -5.4120   -7.6846 H         1 <0>         0.0951
     33 H9         -1.8389   -5.7270  -10.0902 H         1 <0>         0.1004
     34 H10        -4.4225   -2.3330  -10.1010 H         1 <0>         0.1030
     35 H11        -4.0249   -2.0155   -7.6931 H         1 <0>         0.1103
     36 H12        -2.8428   -5.1086  -12.0663 H         1 <0>         0.0636
     37 H13        -5.4611   -3.6110  -11.5987 H         1 <0>         0.0530
     38 H14        -5.0795   -4.6166  -13.0169 H         1 <0>         0.0446
     39 H15        -5.2197   -5.3642  -11.4077 H         1 <0>         0.0523
     40 H16        -3.5170   -2.1322  -12.1241 H         1 <0>         0.0530
     41 H17        -1.8906   -2.8318  -12.3074 H         1 <0>         0.0525
     42 H18        -3.1354   -3.1378  -13.5423 H         1 <0>         0.0446
@<TRIPOS>BOND
     1    1    2 1
     2    1   26 1
     3    1   27 1
     4    1   28 1
     5    2    7 1
     6    2    3 2
     7    3    4 1
     8    3   29 1
     9    4    5 1
    10    4    6 1
    11    4    8 1
    12    6    7 2
    13    8   12 1
    14    8    9 2
    15    9   10 1
    16    9   30 1
    17   10   11 2
    18   10   31 1
    19   11   12 1
    20   11   13 1
    21   13   14 2
    22   13   15 2
    23   13   16 1
    24   16   17 1
    25   17   22 ar
    26   17   18 ar
    27   18   19 ar
    28   18   32 1
    29   19   20 ar
    30   19   33 1
    31   20   21 ar
    32   20   23 1
    33   21   22 ar
    34   21   34 1
    35   22   35 1
    36   23   24 1
    37   23   25 1
    38   23   36 1
    39   24   37 1
    40   24   38 1
    41   24   39 1
    42   25   40 1
    43   25   41 1
    44   25   42 1
@<TRIPOS>MOLECULE
ZINC08618190
   34    35     0     0     0
SMALL
USER_CHARGES
4-(4-isopropylphenyl)-2-sulfanyl-6-(trifluoromethyl)pyridine-3-carbonitrile
@<TRIPOS>ATOM
      1 C1         -6.4664   -1.3595    1.3828 C.3       1 <0>        -0.1447
      2 C2         -6.2678   -0.6734    0.0297 C.3       1 <0>        -0.0574
      3 C3         -7.4064    0.3201   -0.2102 C.3       1 <0>        -0.1434
      4 C4         -4.9517    0.0607    0.0270 C.ar      1 <0>        -0.0729
      5 C5         -3.9789   -0.2726   -0.8984 C.ar      1 <0>        -0.1150
      6 C6         -2.7718    0.3959   -0.9058 C.ar      1 <0>        -0.0892
      7 C7         -2.5335    1.4093    0.0221 C.ar      1 <0>        -0.0549
      8 C8         -3.5158    1.7368    0.9562 C.ar      1 <0>        -0.0924
      9 C9         -4.7210    1.0647    0.9503 C.ar      1 <0>        -0.1165
     10 C10        -1.2396    2.1310    0.0194 C.ar      1 <0>         0.0569
     11 C11        -1.1959    3.5269    0.0315 C.ar      1 <0>        -0.1845
     12 C12         0.0270    4.1660    0.0233 C.ar      1 <0>         0.0844
     13 N1          1.1578    3.4856    0.0093 N.ar      1 <0>        -0.4613
     14 C13         1.1816    2.1617    0.0024 C.ar      1 <0>         0.3470
     15 C14        -0.0173    1.4278    0.0099 C.ar      1 <0>        -0.0829
     16 C15         0.0021   -0.0041    0.0020 C.1       1 <0>         0.2947
     17 N2          0.0175   -1.1399   -0.0042 N.1       1 <0>        -0.4327
     18 C16         0.0723    5.6723    0.0299 C.3       1 <0>         0.5208
     19 F1          1.3985    6.0996   -0.0957 F         1 <0>        -0.1613
     20 F2         -0.6802    6.1662   -1.0411 F         1 <0>        -0.1758
     21 F3         -0.4594    6.1496    1.2327 F         1 <0>        -0.1758
     22 H1         -5.6553   -2.0673    1.5537 H         1 <0>         0.0566
     23 H2         -6.4670   -0.6096    2.1738 H         1 <0>         0.0572
     24 H3         -7.4183   -1.8904    1.3847 H         1 <0>         0.0562
     25 H4         -6.2672   -1.4233   -0.7613 H         1 <0>         0.0766
     26 H5         -7.2649    0.8089   -1.1742 H         1 <0>         0.0563
     27 H6         -8.3583   -0.2108   -0.2083 H         1 <0>         0.0559
     28 H7         -7.4069    1.0701    0.5808 H         1 <0>         0.0573
     29 H8         -4.1644   -1.0579   -1.6163 H         1 <0>         0.1227
     30 H9         -2.0130    0.1346   -1.6285 H         1 <0>         0.1229
     31 H10        -3.3351    2.5174    1.6803 H         1 <0>         0.1286
     32 H11        -5.4840    1.3203    1.6706 H         1 <0>         0.1235
     33 H12        -2.1108    4.1007    0.0429 H         1 <0>         0.1408
     34 S1          2.7263    1.3143   -0.0169 S.3       1 <0>        -0.7978
@<TRIPOS>BOND
     1    1    2 1
     2    1   22 1
     3    1   23 1
     4    1   24 1
     5    2    3 1
     6    2    4 1
     7    2   25 1
     8    3   26 1
     9    3   27 1
    10    3   28 1
    11    4    9 ar
    12    4    5 ar
    13    5    6 ar
    14    5   29 1
    15    6    7 ar
    16    6   30 1
    17    7    8 ar
    18    7   10 1
    19    8    9 ar
    20    8   31 1
    21    9   32 1
    22   10   15 ar
    23   10   11 ar
    24   11   12 ar
    25   11   33 1
    26   12   13 ar
    27   12   18 1
    28   13   14 ar
    29   14   15 ar
    30   14   34 1
    31   15   16 1
    32   16   17 3
    33   18   19 1
    34   18   20 1
    35   18   21 1
@<TRIPOS>MOLECULE
ZINC04417726
   37    41     0     0     0
SMALL
USER_CHARGES
(2S)-6-bromo-2-(2-quinolyl)phenalene-1,3-dione
@<TRIPOS>ATOM
      1 C1          5.9176    0.0086    6.8072 C.ar      1 <0>        -0.1376
      2 C2          7.1269   -0.0858    6.1209 C.ar      1 <0>        -0.1150
      3 C3          7.1622   -0.1139    4.7609 C.ar      1 <0>        -0.0933
      4 C4          5.9627   -0.0475    4.0304 C.ar      1 <0>         0.1305
      5 C5          4.7343    0.0480    4.7304 C.ar      1 <0>        -0.1213
      6 C6          4.7359    0.0740    6.1345 C.ar      1 <0>        -0.0928
      7 C7          3.5347    0.1144    3.9975 C.ar      1 <0>        -0.0797
      8 C8          3.6100    0.0835    2.6338 C.ar      1 <0>        -0.1413
      9 C9          4.8508   -0.0114    2.0081 C.ar      1 <0>         0.3204
     10 N1          5.9661   -0.0784    2.6942 N.ar      1 <0>        -0.4807
     11 C10         4.9126   -0.0440    0.5028 C.2       1 <0>        -0.5233
     12 C11         4.9809   -0.9899   -0.6816 C.2       1 <0>         0.4763
     13 O1          5.7354   -1.9399   -0.6827 O.3       1 <0>        -0.5298
     14 C12         4.1013   -0.7165   -1.8279 C.ar      1 <0>        -0.1552
     15 C13         3.7096   -1.7301   -2.6934 C.ar      1 <0>        -0.0540
     16 C14         2.8833   -1.4469   -3.7726 C.ar      1 <0>        -0.1741
     17 C15         2.4366   -0.1789   -4.0098 C.ar      1 <0>        -0.0862
     18 C16         2.8075    0.8743   -3.1563 C.ar      1 <0>        -0.1537
     19 C17         3.6486    0.6055   -2.0538 C.ar      1 <0>        -0.2108
     20 C18         3.6327    2.1079   -0.0207 C.ar      1 <0>         0.0713
     21 C19         3.5611    2.9463   -1.4294 C.ar      1 <0>         0.0452
     22 C20         2.7363    3.1991   -2.5171 C.ar      1 <0>        -0.1800
     23 C21         2.3593    2.1909   -3.3741 C.ar      1 <0>         0.0896
     24 Br1         1.2375    2.5745   -4.8473 Br        1 <0>        -0.0503
     25 C22         4.9046    1.3711   -0.0442 C.2       1 <0>         0.3842
     26 O2          5.9143    1.8779   -0.4864 O.2       1 <0>        -0.5000
     27 H1          5.9180    0.0290    7.8870 H         1 <0>         0.1172
     28 H2          8.0510   -0.1371    6.6774 H         1 <0>         0.1198
     29 H3          8.1080   -0.1873    4.2446 H         1 <0>         0.1286
     30 H4          3.8052    0.1469    6.6775 H         1 <0>         0.1216
     31 H5          2.5811    0.1873    4.4992 H         1 <0>         0.1319
     32 H6          2.7082    0.1322    2.0415 H         1 <0>         0.1421
     33 H7          4.0492   -2.7417   -2.5263 H         1 <0>         0.1189
     34 H8          2.5879   -2.2452   -4.4373 H         1 <0>         0.1142
     35 H9          1.7992    0.0165   -4.8594 H         1 <0>         0.1163
     36 H10         3.8438    3.7534   -0.7699 H         1 <0>         0.1045
     37 H11         2.3847    4.2049   -2.6939 H         1 <0>         0.1464
@<TRIPOS>BOND
     1    1    6 ar
     2    1    2 ar
     3    1   27 1
     4    2    3 ar
     5    2   28 1
     6    3    4 ar
     7    3   29 1
     8    4   10 ar
     9    4    5 ar
    10    5    6 ar
    11    5    7 ar
    12    6   30 1
    13    7    8 ar
    14    7   31 1
    15    8    9 ar
    16    8   32 1
    17    9   10 ar
    18    9   11 1
    19   11   25 1
    20   11   12 2
    21   12   14 1
    22   12   13 1
    23   14   19 ar
    24   14   15 ar
    25   15   16 ar
    26   15   33 1
    27   16   17 ar
    28   16   34 1
    29   17   18 ar
    30   17   35 1
    31   18   23 ar
    32   18   19 ar
    33   19   20 ar
    34   20   21 ar
    35   20   25 1
    36   21   22 ar
    37   21   36 1
    38   22   23 ar
    39   22   37 1
    40   23   24 1
    41   25   26 2
@<TRIPOS>MOLECULE
ZINC06880055
   37    39     0     0     0
SMALL
USER_CHARGES

@<TRIPOS>ATOM
      1 C1         -0.0184    1.5028    0.0103 C.3       1 <0>        -0.1145
      2 C2          0.0021   -0.0041    0.0020 C.ar      1 <0>        -0.0870
      3 C3          0.0057   -0.6887   -1.1989 C.ar      1 <0>        -0.1219
      4 C4          0.0245   -2.0709   -1.2065 C.ar      1 <0>        -0.1038
      5 C5          0.0400   -2.7685   -0.0132 C.ar      1 <0>        -0.0930
      6 C6          0.0373   -2.0839    1.1877 C.ar      1 <0>        -0.0916
      7 C7          0.0229   -0.7016    1.1953 C.ar      1 <0>        -0.1186
      8 C8          0.0595   -4.2753   -0.0215 C.3       1 <0>        -0.0559
      9 C9          1.5084   -4.7666   -0.0322 C.3       1 <0>         0.0278
     10 H1          2.0371   -4.3205   -0.8745 H         1 <0>         0.1396
     11 C10         1.5284   -6.2328   -0.1612 C.1       1 <0>         0.2152
     12 N1          1.5438   -7.3643   -0.2608 N.1       1 <0>        -0.4066
     13 S1          2.3217   -4.2847    1.5160 S.3       1 <0>         0.0207
     14 C11         3.9966   -4.7833    1.2907 C.ar      1 <0>         0.3169
     15 N2          4.8586   -4.5632    2.2660 N.ar      1 <0>        -0.5508
     16 C12         6.1428   -4.9281    2.1330 C.ar      1 <0>         0.1846
     17 C13         7.0836   -4.7100    3.1485 C.ar      1 <0>        -0.1301
     18 C14         8.3769   -5.1002    2.9633 C.ar      1 <0>        -0.0787
     19 C15         8.7784   -5.7124    1.7798 C.ar      1 <0>        -0.1687
     20 C16         7.8876   -5.9395    0.7715 C.ar      1 <0>        -0.0301
     21 C17         6.5534   -5.5516    0.9301 C.ar      1 <0>        -0.1794
     22 C18         5.5837   -5.7626   -0.0833 C.ar      1 <0>         0.3913
     23 S2          6.0214   -6.5330   -1.6063 S.3       1 <0>        -0.7855
     24 N3          4.3385   -5.3706    0.1468 N.ar      1 <0>        -0.5724
     25 H2          1.0042    1.8801    0.0026 H         1 <0>         0.0697
     26 H3         -0.5455    1.8639   -0.8728 H         1 <0>         0.0636
     27 H4         -0.5286    1.8543    0.9071 H         1 <0>         0.0643
     28 H5         -0.0064   -0.1436   -2.1312 H         1 <0>         0.1199
     29 H6          0.0266   -2.6057   -2.1448 H         1 <0>         0.1240
     30 H7          0.0491   -2.6289    2.1200 H         1 <0>         0.1254
     31 H8          0.0245   -0.1667    2.1335 H         1 <0>         0.1214
     32 H9         -0.4447   -4.6501    0.8693 H         1 <0>         0.0913
     33 H10        -0.4546   -4.6404   -0.9106 H         1 <0>         0.0999
     34 H11         6.7862   -4.2353    4.0719 H         1 <0>         0.1278
     35 H12         9.1008   -4.9314    3.7469 H         1 <0>         0.1213
     36 H13         9.8089   -6.0115    1.6577 H         1 <0>         0.1198
     37 H14         8.2106   -6.4150   -0.1428 H         1 <0>         0.1442
@<TRIPOS>BOND
     1    1    2 1
     2    1   25 1
     3    1   26 1
     4    1   27 1
     5    2    7 ar
     6    2    3 ar
     7    3    4 ar
     8    3   28 1
     9    4    5 ar
    10    4   29 1
    11    5    6 ar
    12    5    8 1
    13    6    7 ar
    14    6   30 1
    15    7   31 1
    16    8    9 1
    17    8   32 1
    18    8   33 1
    19    9   10 1
    20    9   11 1
    21    9   13 1
    22   11   12 3
    23   13   14 1
    24   14   15 ar
    25   14   24 ar
    26   15   16 ar
    27   16   21 ar
    28   16   17 ar
    29   17   18 ar
    30   17   34 1
    31   18   19 ar
    32   18   35 1
    33   19   20 ar
    34   19   36 1
    35   20   21 ar
    36   20   37 1
    37   21   22 ar
    38   22   23 1
    39   22   24 ar
@<TRIPOS>MOLECULE
ZINC48383385
   36    37     0     0     0
SMALL
USER_CHARGES

@<TRIPOS>ATOM
      1 C1          0.8105   -0.1441   -0.5827 C.ar      1 <0>        -0.1147
      2 C2          1.9524    0.6316   -0.5846 C.ar      1 <0>        -0.0581
      3 C3          2.1513    1.5772    0.4140 C.ar      1 <0>        -0.1430
      4 C4          1.2006    1.7415    1.4139 C.ar      1 <0>        -0.0948
      5 C5          0.0591    0.9653    1.4150 C.ar      1 <0>        -0.1319
      6 C6         -0.1393    0.0205    0.4169 C.ar      1 <0>         0.1997
      7 N1         -1.2984   -0.7673    0.4184 N.am      1 <0>        -0.6681
      8 C7         -1.2634   -2.0187   -0.0808 C.2       1 <0>         0.5639
      9 O1         -0.2097   -2.4976   -0.4437 O.2       1 <0>        -0.5239
     10 C8         -2.5333   -2.8230   -0.1880 C.3       1 <0>        -0.0804
     11 H1         -3.3546   -2.2740    0.2726 H         1 <0>         0.0781
     12 C9         -2.8526   -3.0862   -1.6612 C.3       1 <0>        -0.0752
     13 C10        -3.9537   -4.0990   -1.7785 C.2       1 <0>        -0.1689
     14 C11        -4.3196   -4.8870   -0.8189 C.2       1 <0>        -0.1432
     15 C12        -3.7005   -4.8908    0.5481 C.3       1 <0>        -0.0681
     16 C13        -2.3516   -4.1706    0.5219 C.3       1 <0>        -0.1406
     17 H2         -1.6276   -4.7768   -0.0225 H         1 <0>         0.0754
     18 C14        -1.8684   -3.9400    1.9306 C.2       1 <0>         0.4926
     19 O2         -2.2665   -4.6529    2.8360 O.co2     1 <0>        -0.6930
     20 O3         -1.0793   -3.0406    2.1648 O.co2     1 <0>        -0.6784
     21 S1          3.6089    2.5672    0.4124 S.3       1 <0>        -0.0377
     22 C15         3.4219    3.6258    1.8736 C.3       1 <0>         0.4520
     23 F1          3.3281    2.8276    3.0187 F         1 <0>        -0.1626
     24 F2          4.5323    4.4698    1.9831 F         1 <0>        -0.1506
     25 F3          2.2613    4.3963    1.7458 F         1 <0>        -0.1653
     26 H3          0.6537   -0.8760   -1.3612 H         1 <0>         0.1476
     27 H4          2.6912    0.5033   -1.3618 H         1 <0>         0.1318
     28 H5          1.3550    2.4761    2.1904 H         1 <0>         0.1220
     29 H6         -0.6798    1.0930    2.1922 H         1 <0>         0.1338
     30 H7         -2.1259   -0.4118    0.7787 H         1 <0>         0.4073
     31 H8         -3.1657   -2.1557   -2.1348 H         1 <0>         0.0676
     32 H9         -1.9609   -3.4622   -2.1626 H         1 <0>         0.0800
     33 H10        -4.4730   -4.1755   -2.7224 H         1 <0>         0.1003
     34 H11        -5.1199   -5.5853   -1.0143 H         1 <0>         0.0987
     35 H12        -4.3643   -4.3815    1.2468 H         1 <0>         0.0725
     36 H13        -3.5552   -5.9201    0.8761 H         1 <0>         0.0754
@<TRIPOS>BOND
     1    1    6 ar
     2    1    2 ar
     3    1   26 1
     4    2    3 ar
     5    2   27 1
     6    3    4 ar
     7    3   21 1
     8    4    5 ar
     9    4   28 1
    10    5    6 ar
    11    5   29 1
    12    6    7 1
    13    7    8 am
    14    7   30 1
    15    8    9 2
    16    8   10 1
    17   10   11 1
    18   10   16 1
    19   10   12 1
    20   12   13 1
    21   12   31 1
    22   12   32 1
    23   13   14 2
    24   13   33 1
    25   14   15 1
    26   14   34 1
    27   15   16 1
    28   15   35 1
    29   15   36 1
    30   16   17 1
    31   16   18 1
    32   18   19 2
    33   18   20 1
    34   21   22 1
    35   22   23 1
    36   22   24 1
    37   22   25 1
@<TRIPOS>MOLECULE
ZINC05696014
   39    41     0     0     0
SMALL
USER_CHARGES

@<TRIPOS>ATOM
      1 C1         -0.1895    1.4584   -0.8385 C.3       1 <0>        -0.1526
      2 C2         -0.2408   -0.0707   -0.8250 C.3       1 <0>        -0.1173
      3 C3         -1.4336   -0.5336    0.0140 C.3       1 <0>        -0.0482
      4 H1         -1.3715   -0.0920    1.0086 H         1 <0>         0.0756
      5 C4         -2.7337   -0.0909   -0.6603 C.3       1 <0>        -0.1449
      6 C5         -1.4138   -2.0360    0.1293 C.ar      1 <0>        -0.0759
      7 C6         -1.4769   -2.8164   -1.0106 C.ar      1 <0>        -0.1057
      8 C7         -1.4590   -4.1936   -0.9083 C.ar      1 <0>        -0.0839
      9 C8         -1.3769   -4.7945    0.3409 C.ar      1 <0>         0.1553
     10 C9         -1.3131   -4.0081    1.4837 C.ar      1 <0>        -0.0836
     11 C10        -1.3267   -2.6314    1.3743 C.ar      1 <0>        -0.1090
     12 N1         -1.3589   -6.1907    0.4481 N.pl3     1 <0>        -0.4632
     13 C11        -0.1748   -6.8467    0.4304 C.2       1 <0>         0.5072
     14 O1          0.9845   -6.1748    0.3113 O.3       1 <0>        -0.5969
     15 C12        -0.1880   -8.2495    0.5404 C.ar      1 <0>        -0.2427
     16 C13         0.9951   -9.0027    0.5309 C.ar      1 <0>         0.0075
     17 C14         0.9286  -10.3598    0.6408 C.ar      1 <0>        -0.1885
     18 C15        -0.2991  -11.0088    0.7624 C.ar      1 <0>         0.0333
     19 C16        -1.4692  -10.3056    0.7746 C.ar      1 <0>        -0.1379
     20 C17        -1.4402   -8.9095    0.6643 C.ar      1 <0>         0.2334
     21 N2         -2.5653   -8.1801    0.6729 N.2       1 <0>        -0.5549
     22 C18        -2.5167   -6.8608    0.5725 C.2       1 <0>         0.5063
     23 S1         -3.9828   -5.9772    0.5953 S.2       1 <0>        -0.6862
     24 Cl1        -0.3407  -12.7388    0.8999 Cl        1 <0>        -0.0771
     25 H2          0.6603    1.7882   -1.4361 H         1 <0>         0.0513
     26 H3         -1.1109    1.8491   -1.2704 H         1 <0>         0.0560
     27 H4         -0.0814    1.8273    0.1815 H         1 <0>         0.0523
     28 H5         -0.3489   -0.4396   -1.8449 H         1 <0>         0.0636
     29 H6          0.6806   -0.4613   -0.3931 H         1 <0>         0.0634
     30 H7         -2.7959   -0.5325   -1.6549 H         1 <0>         0.0565
     31 H8         -3.5835   -0.4207   -0.0626 H         1 <0>         0.0575
     32 H9         -2.7481    0.9958   -0.7437 H         1 <0>         0.0563
     33 H10        -1.5408   -2.3484   -1.9819 H         1 <0>         0.1222
     34 H11        -1.5091   -4.8025   -1.7989 H         1 <0>         0.1169
     35 H12        -1.2493   -4.4725    2.4566 H         1 <0>         0.1171
     36 H13        -1.2733   -2.0192    2.2625 H         1 <0>         0.1226
     37 H14         1.9520   -8.5110    0.4369 H         1 <0>         0.1394
     38 H15         1.8394  -10.9400    0.6331 H         1 <0>         0.1318
     39 H16        -2.4125  -10.8231    0.8688 H         1 <0>         0.1427
@<TRIPOS>BOND
     1    1    2 1
     2    1   25 1
     3    1   26 1
     4    1   27 1
     5    2    3 1
     6    2   28 1
     7    2   29 1
     8    3    4 1
     9    3    5 1
    10    3    6 1
    11    5   30 1
    12    5   31 1
    13    5   32 1
    14    6   11 ar
    15    6    7 ar
    16    7    8 ar
    17    7   33 1
    18    8    9 ar
    19    8   34 1
    20    9   10 ar
    21    9   12 1
    22   10   11 ar
    23   10   35 1
    24   11   36 1
    25   12   22 1
    26   12   13 1
    27   13   14 1
    28   13   15 2
    29   15   20 ar
    30   15   16 ar
    31   16   17 ar
    32   16   37 1
    33   17   18 ar
    34   17   38 1
    35   18   19 ar
    36   18   24 1
    37   19   20 ar
    38   19   39 1
    39   20   21 2
    40   21   22 1
    41   22   23 2
@<TRIPOS>MOLECULE
ZINC05336830
   39    41     0     0     0
SMALL
USER_CHARGES

@<TRIPOS>ATOM
      1 C1          1.4171    0.9263   -0.4262 C.3       1 <0>        -0.1058
      2 C2          0.5642   -0.2956   -0.2014 C.ar      1 <0>        -0.0821
      3 C3         -0.3032   -0.7238   -1.1896 C.ar      1 <0>        -0.1405
      4 C4         -1.0873   -1.8448   -0.9876 C.ar      1 <0>        -0.0878
      5 C5         -1.0065   -2.5404    0.2027 C.ar      1 <0>        -0.1552
      6 C6         -0.1364   -2.1130    1.1974 C.ar      1 <0>         0.1774
      7 C7          0.6537   -0.9898    0.9892 C.ar      1 <0>        -0.0798
      8 N1         -0.0524   -2.8148    2.4040 N.pl3     1 <0>        -0.6585
      9 C8          0.0721   -2.1310    3.5894 C.2       1 <0>         0.5653
     10 N2          0.2656   -2.7897    4.7115 N.2       1 <0>        -0.6399
     11 C9          0.2623   -2.1241    5.9026 C.ar      1 <0>         0.2093
     12 C10        -0.7823   -1.2704    6.2352 C.ar      1 <0>        -0.1369
     13 C11        -0.7829   -0.5947    7.4477 C.ar      1 <0>        -0.0751
     14 C12         0.2260   -0.7380    8.3503 C.ar      1 <0>        -0.1739
     15 C13         1.3141   -1.5846    8.0805 C.ar      1 <0>        -0.0322
     16 C14         1.3543   -2.2988    6.8579 C.ar      1 <0>        -0.0623
     17 C15         2.4346   -3.1473    6.5874 C.ar      1 <0>        -0.0687
     18 C16         3.4327   -3.2809    7.5061 C.ar      1 <0>        -0.1560
     19 C17         3.3934   -2.5845    8.7119 C.ar      1 <0>        -0.1220
     20 C18         2.3637   -1.7422    9.0021 C.ar      1 <0>        -0.1232
     21 S1         -0.0274   -0.3719    3.6063 S.3       1 <0>        -0.8751
     22 C19        -2.0315   -2.3074   -2.0672 C.3       1 <0>        -0.1043
     23 H1          2.3629    0.6306   -0.8802 H         1 <0>         0.0609
     24 H2          0.8957    1.6163   -1.0895 H         1 <0>         0.0580
     25 H3          1.6097    1.4156    0.5286 H         1 <0>         0.0677
     26 H4         -0.3685   -0.1813   -2.1212 H         1 <0>         0.1106
     27 H5         -1.6195   -3.4156    0.3601 H         1 <0>         0.1128
     28 H6          1.3345   -0.6574    1.7589 H         1 <0>         0.1459
     29 H7         -0.0821   -3.7844    2.4042 H         1 <0>         0.3973
     30 H8         -1.6006   -1.1312    5.5443 H         1 <0>         0.1182
     31 H9         -1.6066    0.0635    7.6813 H         1 <0>         0.1058
     32 H10         0.1896   -0.1951    9.2833 H         1 <0>         0.1092
     33 H11         2.4767   -3.6931    5.6564 H         1 <0>         0.1212
     34 H12         4.2653   -3.9360    7.2964 H         1 <0>         0.1106
     35 H13         4.1963   -2.7078    9.4236 H         1 <0>         0.1103
     36 H14         2.3469   -1.2085    9.9409 H         1 <0>         0.1161
     37 H15        -1.5170   -3.0095   -2.7234 H         1 <0>         0.0622
     38 H16        -2.8912   -2.7990   -1.6118 H         1 <0>         0.0596
     39 H17        -2.3691   -1.4486   -2.6472 H         1 <0>         0.0606
@<TRIPOS>BOND
     1    1    2 1
     2    1   23 1
     3    1   24 1
     4    1   25 1
     5    2    7 ar
     6    2    3 ar
     7    3    4 ar
     8    3   26 1
     9    4    5 ar
    10    4   22 1
    11    5    6 ar
    12    5   27 1
    13    6    7 ar
    14    6    8 1
    15    7   28 1
    16    8    9 1
    17    8   29 1
    18    9   10 2
    19    9   21 1
    20   10   11 1
    21   11   16 ar
    22   11   12 ar
    23   12   13 ar
    24   12   30 1
    25   13   14 ar
    26   13   31 1
    27   14   15 ar
    28   14   32 1
    29   15   20 ar
    30   15   16 ar
    31   16   17 ar
    32   17   18 ar
    33   17   33 1
    34   18   19 ar
    35   18   34 1
    36   19   20 ar
    37   19   35 1
    38   20   36 1
    39   22   37 1
    40   22   38 1
    41   22   39 1
@<TRIPOS>MOLECULE
ZINC20589616
   31    33     0     0     0
SMALL
USER_CHARGES
4-(2,6-dichloro-3-methyl-phenyl)-5-phenyl-1,2,4-triazole-3-thiol
@<TRIPOS>ATOM
      1 C1          2.4807    1.7042   -0.0120 C.3       1 <0>        -0.1151
      2 C2          1.1656    2.4399    0.0040 C.ar      1 <0>        -0.0709
      3 C3          1.1477    3.8226    0.0116 C.ar      1 <0>        -0.0942
      4 C4         -0.0565    4.5015    0.0263 C.ar      1 <0>        -0.1027
      5 C5         -1.2476    3.7994    0.0330 C.ar      1 <0>        -0.0200
      6 C6         -1.2334    2.4107    0.0210 C.ar      1 <0>         0.1822
      7 C7         -0.0215    1.7317    0.0116 C.ar      1 <0>        -0.0099
      8 Cl1         0.0021   -0.0041    0.0020 Cl        1 <0>        -0.0356
      9 N1         -2.4399    1.6954    0.0233 N.pl3     1 <0>        -0.4535
     10 C8         -3.1646    1.2810   -1.0726 C.2       1 <0>         0.1609
     11 N2         -4.2200    0.6457   -0.6182 N.2       1 <0>        -0.2655
     12 N3         -4.2111    0.6409    0.6667 N.2       1 <0>        -0.3395
     13 C9         -3.1461    1.2685    1.1141 C.2       1 <0>         0.4006
     14 S1         -2.7099    1.5138    2.8035 S.3       1 <0>        -0.7837
     15 C10        -2.8193    1.5085   -2.4917 C.ar      1 <0>         0.0210
     16 C11        -1.8533    2.4559   -2.8349 C.ar      1 <0>        -0.1212
     17 C12        -1.5327    2.6603   -4.1610 C.ar      1 <0>        -0.1147
     18 C13        -2.1735    1.9360   -5.1504 C.ar      1 <0>        -0.1262
     19 C14        -3.1353    0.9988   -4.8174 C.ar      1 <0>        -0.1175
     20 C15        -3.4620    0.7812   -3.4948 C.ar      1 <0>        -0.0899
     21 Cl2        -2.7593    4.6529    0.0508 Cl        1 <0>        -0.0380
     22 H1          3.3070    2.4303   -0.0161 H         1 <0>         0.0734
     23 H2          2.5391    1.0771   -0.9139 H         1 <0>         0.0762
     24 H3          2.5559    1.0682    0.8823 H         1 <0>         0.0789
     25 H4          2.0767    4.3735    0.0057 H         1 <0>         0.1445
     26 H5         -0.0669    5.5814    0.0322 H         1 <0>         0.1450
     27 H6         -1.3557    3.0252   -2.0637 H         1 <0>         0.1185
     28 H7         -0.7826    3.3902   -4.4276 H         1 <0>         0.1205
     29 H8         -1.9215    2.1026   -6.1873 H         1 <0>         0.1194
     30 H9         -3.6319    0.4367   -5.5945 H         1 <0>         0.1237
     31 H10        -4.2130    0.0494   -3.2362 H         1 <0>         0.1332
@<TRIPOS>BOND
     1    1    2 1
     2    1   22 1
     3    1   23 1
     4    1   24 1
     5    2    7 ar
     6    2    3 ar
     7    3    4 ar
     8    3   25 1
     9    4    5 ar
    10    4   26 1
    11    5    6 ar
    12    5   21 1
    13    6    7 ar
    14    6    9 1
    15    7    8 1
    16    9   13 1
    17    9   10 1
    18   10   15 1
    19   10   11 2
    20   11   12 1
    21   12   13 2
    22   13   14 1
    23   15   20 ar
    24   15   16 ar
    25   16   17 ar
    26   16   27 1
    27   17   18 ar
    28   17   28 1
    29   18   19 ar
    30   18   29 1
    31   19   20 ar
    32   19   30 1
    33   20   31 1
@<TRIPOS>MOLECULE
ZINC02212796
   43    47     0     0     0
SMALL
USER_CHARGES
4-(9-anthrylmethyleneamino)-3-(4-chlorophenyl)-1H-1,2,4-triazole-5-thione
@<TRIPOS>ATOM
      1 C1         -5.4768    7.3856    0.7675 C.ar      1 <0>        -0.1217
      2 C2         -5.2037    6.0599    1.1006 C.ar      1 <0>        -0.1026
      3 C3         -4.8224    5.1522    0.1623 C.ar      1 <0>        -0.1151
      4 C4         -4.7023    5.5501   -1.1805 C.ar      1 <0>        -0.0069
      5 C5         -4.9830    6.9435   -1.5323 C.ar      1 <0>        -0.0600
      6 C6         -5.3747    7.8348   -0.5103 C.ar      1 <0>        -0.0980
      7 C7         -4.8681    7.3734   -2.8549 C.ar      1 <0>        -0.0634
      8 C8         -4.4786    6.4747   -3.8487 C.ar      1 <0>        -0.0569
      9 C9         -4.3552    6.8870   -5.1929 C.ar      1 <0>        -0.1148
     10 C10        -3.9734    5.9880   -6.1370 C.ar      1 <0>        -0.1095
     11 C11        -3.6982    4.6604   -5.8136 C.ar      1 <0>        -0.1116
     12 C12        -3.7986    4.2010   -4.5375 C.ar      1 <0>        -0.1138
     13 C13        -4.1889    5.0794   -3.5118 C.ar      1 <0>        -0.0031
     14 C14        -4.3025    4.6364   -2.1777 C.ar      1 <0>        -0.0479
     15 C15        -4.0144    3.2418   -1.8327 C.2       1 <0>         0.1815
     16 N1         -3.7605    2.3775   -2.7731 N.2       1 <0>        -0.2374
     17 N2         -3.4851    1.0440   -2.4432 N.pl3     1 <0>        -0.3769
     18 C16        -4.4167    0.0304   -2.3238 C.2       1 <0>         0.2000
     19 N3         -3.7923   -1.0710   -2.0107 N.2       1 <0>        -0.2958
     20 N4         -2.4241   -0.7822   -1.9157 N.2       1 <0>        -0.3678
     21 C17        -2.2662    0.5300   -2.1845 C.2       1 <0>         0.3949
     22 S1         -0.7840    1.3867   -2.2014 S.3       1 <0>        -0.7553
     23 C18        -5.8759    0.1698   -2.5237 C.ar      1 <0>         0.0105
     24 C19        -6.7419   -0.8316   -2.0833 C.ar      1 <0>        -0.0743
     25 C20        -8.1020   -0.6936   -2.2673 C.ar      1 <0>        -0.1086
     26 C21        -8.6080    0.4338   -2.8920 C.ar      1 <0>        -0.0351
     27 C22        -7.7530    1.4284   -3.3359 C.ar      1 <0>        -0.1050
     28 C23        -6.3910    1.3012   -3.1573 C.ar      1 <0>        -0.1017
     29 Cl1       -10.3209    0.6011   -3.1192 Cl        1 <0>        -0.0774
     30 H1         -5.7773    8.0726    1.5447 H         1 <0>         0.1223
     31 H2         -5.2976    5.7456    2.1296 H         1 <0>         0.1237
     32 H3         -4.6166    4.1309    0.4467 H         1 <0>         0.1284
     33 H4         -5.5915    8.8670   -0.7427 H         1 <0>         0.1295
     34 H5         -5.0802    8.4014   -3.1091 H         1 <0>         0.1355
     35 H6         -4.5631    7.9102   -5.4691 H         1 <0>         0.1275
     36 H7         -3.8805    6.3101   -7.1637 H         1 <0>         0.1205
     37 H8         -3.3977    3.9794   -6.5962 H         1 <0>         0.1226
     38 H9         -3.5793    3.1675   -4.3134 H         1 <0>         0.1796
     39 H10        -4.0126    2.9249   -0.7793 H         1 <0>         0.1271
     40 H11        -6.3484   -1.7110   -1.5952 H         1 <0>         0.1442
     41 H12        -8.7736   -1.4663   -1.9231 H         1 <0>         0.1370
     42 H13        -8.1531    2.3056   -3.8225 H         1 <0>         0.1343
     43 H14        -5.7251    2.0779   -3.5032 H         1 <0>         0.1414
@<TRIPOS>BOND
     1    1    6 ar
     2    1    2 ar
     3    1   30 1
     4    2    3 ar
     5    2   31 1
     6    3    4 ar
     7    3   32 1
     8    4   14 ar
     9    4    5 ar
    10    5    6 ar
    11    5    7 ar
    12    6   33 1
    13    7    8 ar
    14    7   34 1
    15    8   13 ar
    16    8    9 ar
    17    9   10 ar
    18    9   35 1
    19   10   11 ar
    20   10   36 1
    21   11   12 ar
    22   11   37 1
    23   12   13 ar
    24   12   38 1
    25   13   14 ar
    26   14   15 1
    27   15   16 2
    28   15   39 1
    29   16   17 1
    30   17   21 1
    31   17   18 1
    32   18   19 2
    33   18   23 1
    34   19   20 1
    35   20   21 2
    36   21   22 1
    37   23   28 ar
    38   23   24 ar
    39   24   25 ar
    40   24   40 1
    41   25   26 ar
    42   25   41 1
    43   26   27 ar
    44   26   29 1
    45   27   28 ar
    46   27   42 1
    47   28   43 1
@<TRIPOS>MOLECULE
ZINC20593984
   30    32     0     0     0
SMALL
USER_CHARGES

@<TRIPOS>ATOM
      1 C1          0.7213    0.1938   -1.1206 C.ar      1 <0>        -0.0803
      2 C2          1.9189    0.8778   -1.0887 C.ar      1 <0>        -0.1096
      3 C3          2.4341    1.3209    0.1177 C.ar      1 <0>        -0.0266
      4 C4          1.7515    1.0804    1.2982 C.ar      1 <0>        -0.1129
      5 C5          0.5531    0.3973    1.2781 C.ar      1 <0>        -0.0727
      6 C6          0.0292   -0.0514    0.0656 C.ar      1 <0>        -0.0201
      7 C7         -1.2568   -0.7851    0.0377 C.2       1 <0>         0.1620
      8 C8         -1.4113   -1.9136   -0.7597 C.2       1 <0>        -0.1793
      9 S1         -3.1057   -2.3490   -0.3899 S.3       1 <0>         0.0178
     10 C9         -3.4347   -1.0211    0.7600 C.2       1 <0>         0.3833
     11 N1         -2.2785   -0.3827    0.7750 N.2       1 <0>        -0.5662
     12 N2         -4.5961   -0.7385    1.4570 N.pl3     1 <0>        -0.7917
     13 C10        -0.4450   -2.5700   -1.6612 C.ar      1 <0>         0.0130
     14 C11         0.8494   -2.8515   -1.2171 C.ar      1 <0>        -0.0792
     15 C12         1.7475   -3.4656   -2.0645 C.ar      1 <0>        -0.1046
     16 C13         1.3688   -3.8031   -3.3532 C.ar      1 <0>        -0.0298
     17 C14         0.0873   -3.5268   -3.7997 C.ar      1 <0>        -0.1061
     18 C15        -0.8222   -2.9179   -2.9606 C.ar      1 <0>        -0.0931
     19 Cl1         2.5057   -4.5753   -4.4137 Cl        1 <0>        -0.0656
     20 Cl2         3.9420    2.1806    0.1505 Cl        1 <0>        -0.0673
     21 H1          0.3181   -0.1474   -2.0626 H         1 <0>         0.1330
     22 H2          2.4557    1.0679   -2.0064 H         1 <0>         0.1371
     23 H3          2.1582    1.4279    2.2364 H         1 <0>         0.1366
     24 H4          0.0217    0.2100    2.1995 H         1 <0>         0.1352
     25 H5         -5.3766   -1.3042    1.3486 H         1 <0>         0.4232
     26 H6         -4.6298    0.0252    2.0540 H         1 <0>         0.4197
     27 H7          1.1461   -2.5885   -0.2125 H         1 <0>         0.1337
     28 H8          2.7485   -3.6835   -1.7226 H         1 <0>         0.1383
     29 H9         -0.2018   -3.7925   -4.8058 H         1 <0>         0.1381
     30 H10        -1.8225   -2.7067   -3.3087 H         1 <0>         0.1342
@<TRIPOS>BOND
     1    1    6 ar
     2    1    2 ar
     3    1   21 1
     4    2    3 ar
     5    2   22 1
     6    3    4 ar
     7    3   20 1
     8    4    5 ar
     9    4   23 1
    10    5    6 ar
    11    5   24 1
    12    6    7 1
    13    7   11 1
    14    7    8 2
    15    8    9 1
    16    8   13 1
    17    9   10 1
    18   10   11 2
    19   10   12 1
    20   12   25 1
    21   12   26 1
    22   13   18 ar
    23   13   14 ar
    24   14   15 ar
    25   14   27 1
    26   15   16 ar
    27   15   28 1
    28   16   17 ar
    29   16   19 1
    30   17   18 ar
    31   17   29 1
    32   18   30 1
@<TRIPOS>MOLECULE
ZINC43735051
   30    32     0     0     0
SMALL
USER_CHARGES

@<TRIPOS>ATOM
      1 C1          0.1491    1.1354   -0.8875 C.ar      1 <0>        -0.1060
      2 C2          1.3301    1.8473   -0.8571 C.ar      1 <0>        -0.0868
      3 C3          2.3887    1.4058   -0.0587 C.ar      1 <0>        -0.0329
      4 C4          2.2418    0.2430    0.7049 C.ar      1 <0>        -0.0180
      5 C5          1.0529   -0.4594    0.6641 C.ar      1 <0>        -0.0346
      6 C6          0.0096   -0.0141   -0.1301 C.ar      1 <0>        -0.0995
      7 Cl1         0.8668   -1.9032    1.6098 Cl        1 <0>        -0.0546
      8 Cl2         3.5497   -0.3160    1.7003 Cl        1 <0>        -0.0367
      9 C7          3.6528    2.1608   -0.0217 C.2       1 <0>        -0.0724
     10 C8          3.6379    3.5024   -0.1163 C.2       1 <0>         0.0203
     11 C9          4.9032    4.2462   -0.2358 C.ar      1 <0>         0.3943
     12 N1          6.0497    3.5620   -0.2531 N.ar      1 <0>        -0.6202
     13 C10         7.2155    4.1744   -0.3588 C.ar      1 <0>         0.4763
     14 O1          8.3698    3.4688   -0.3755 O.3       1 <0>        -0.6554
     15 C11         7.2278    5.5873   -0.4547 C.ar      1 <0>        -0.2239
     16 C12         8.4193    6.3115   -0.5699 C.ar      1 <0>        -0.0126
     17 C13         8.3733    7.6729   -0.6595 C.ar      1 <0>        -0.0963
     18 C14         7.1561    8.3507   -0.6373 C.ar      1 <0>        -0.0747
     19 C15         5.9780    7.6748   -0.5262 C.ar      1 <0>        -0.1236
     20 C16         5.9884    6.2750   -0.4325 C.ar      1 <0>         0.1972
     21 N2          4.8582    5.5651   -0.3272 N.ar      1 <0>        -0.5839
     22 Cl3         9.8515    8.5720   -0.8025 Cl        1 <0>        -0.0961
     23 Cl4         2.1270    4.3571   -0.0975 Cl        1 <0>        -0.0531
     24 H1         -0.6708    1.4787   -1.5010 H         1 <0>         0.1393
     25 H2          1.4366    2.7441   -1.4495 H         1 <0>         0.1483
     26 H3         -0.9179   -0.5667   -0.1581 H         1 <0>         0.1401
     27 H4          4.5918    1.6372    0.0813 H         1 <0>         0.1700
     28 H5          9.3688    5.7972   -0.5875 H         1 <0>         0.1352
     29 H6          7.1461    9.4283   -0.7090 H         1 <0>         0.1268
     30 H7          5.0420    8.2134   -0.5106 H         1 <0>         0.1337
@<TRIPOS>BOND
     1    1    6 ar
     2    1    2 ar
     3    1   24 1
     4    2    3 ar
     5    2   25 1
     6    3    4 ar
     7    3    9 1
     8    4    5 ar
     9    4    8 1
    10    5    6 ar
    11    5    7 1
    12    6   26 1
    13    9   10 2
    14    9   27 1
    15   10   11 1
    16   10   23 1
    17   11   21 ar
    18   11   12 ar
    19   12   13 ar
    20   13   14 1
    21   13   15 ar
    22   15   20 ar
    23   15   16 ar
    24   16   17 ar
    25   16   28 1
    26   17   18 ar
    27   17   22 1
    28   18   19 ar
    29   18   29 1
    30   19   20 ar
    31   19   30 1
    32   20   21 ar
@<TRIPOS>MOLECULE
ZINC59168634
   44    47     0     0     0
SMALL
USER_CHARGES

@<TRIPOS>ATOM
      1 C1         -0.0184    1.5028    0.0103 C.3       1 <0>        -0.1593
      2 C2          0.0021   -0.0041    0.0020 C.2       1 <0>         0.2003
      3 N1          0.0216   -0.6591    1.1226 N.2       1 <0>        -0.2338
      4 N2          0.0237    0.0348    2.3396 N.pl3     1 <0>        -0.3558
      5 C3          1.1222    0.4674    3.0505 C.2       1 <0>         0.1395
      6 N3          0.6711    1.0699    4.1271 N.2       1 <0>        -0.2398
      7 N4         -0.6135    1.0452    4.1398 N.2       1 <0>        -0.3319
      8 C4         -1.0653    0.4305    3.0691 C.2       1 <0>         0.3844
      9 S1         -2.7563    0.1625    2.6526 S.3       1 <0>        -0.7882
     10 C5          2.5395    0.2871    2.6733 C.ar      1 <0>         0.0282
     11 C6          2.8714   -0.3736    1.4891 C.ar      1 <0>        -0.1139
     12 C7          4.1964   -0.5381    1.1426 C.ar      1 <0>        -0.1120
     13 C8          5.1964   -0.0506    1.9657 C.ar      1 <0>        -0.1160
     14 C9          4.8757    0.6047    3.1409 C.ar      1 <0>        -0.1106
     15 C10         3.5533    0.7820    3.4972 C.ar      1 <0>        -0.0183
     16 Cl1         3.1520    1.6114    4.9685 Cl        1 <0>        -0.0331
     17 C11        -0.0001   -0.7339   -1.2781 C.ar      1 <0>        -0.0493
     18 C12        -0.0153   -0.0291   -2.4855 C.ar      1 <0>        -0.0804
     19 C13        -0.0169   -0.7123   -3.6804 C.ar      1 <0>        -0.1160
     20 C14        -0.0037   -2.1074   -3.6871 C.ar      1 <0>        -0.0305
     21 C15         0.0110   -2.8122   -2.4832 C.ar      1 <0>        -0.1153
     22 C16         0.0188   -2.1319   -1.2867 C.ar      1 <0>        -0.0649
     23 C17        -0.0059   -2.8418   -4.9752 C.ar      1 <0>        -0.0444
     24 C18        -0.0153   -2.1409   -6.1802 C.ar      1 <0>        -0.1093
     25 C19        -0.0173   -2.8297   -7.3760 C.ar      1 <0>        -0.1193
     26 C20        -0.0101   -4.2130   -7.3804 C.ar      1 <0>        -0.1205
     27 C21        -0.0012   -4.9139   -6.1878 C.ar      1 <0>        -0.1185
     28 C22         0.0072   -4.2357   -4.9859 C.ar      1 <0>        -0.1087
     29 H1          1.0042    1.8801    0.0026 H         1 <0>         0.0859
     30 H2         -0.5455    1.8639   -0.8728 H         1 <0>         0.0859
     31 H3         -0.5286    1.8543    0.9071 H         1 <0>         0.0830
     32 H4          2.0924   -0.7553    0.8458 H         1 <0>         0.1337
     33 H5          4.4540   -1.0491    0.2267 H         1 <0>         0.1276
     34 H6          6.2320   -0.1827    1.6894 H         1 <0>         0.1294
     35 H7          5.6610    0.9821    3.7790 H         1 <0>         0.1343
     36 H8         -0.0262    1.0508   -2.4806 H         1 <0>         0.1343
     37 H9         -0.0286   -0.1682   -4.6132 H         1 <0>         0.1307
     38 H10         0.0204   -3.8921   -2.4901 H         1 <0>         0.1304
     39 H11         0.0351   -2.6777   -0.3549 H         1 <0>         0.1397
     40 H12        -0.0213   -1.0609   -6.1779 H         1 <0>         0.1266
     41 H13        -0.0250   -2.2878   -8.3102 H         1 <0>         0.1234
     42 H14        -0.0117   -4.7480   -8.3186 H         1 <0>         0.1212
     43 H15         0.0040   -5.9938   -6.1973 H         1 <0>         0.1237
     44 H16         0.0189   -4.7839   -4.0554 H         1 <0>         0.1273
@<TRIPOS>BOND
     1    1    2 1
     2    1   29 1
     3    1   30 1
     4    1   31 1
     5    2    3 2
     6    2   17 1
     7    3    4 1
     8    4    8 1
     9    4    5 1
    10    5    6 2
    11    5   10 1
    12    6    7 1
    13    7    8 2
    14    8    9 1
    15   10   15 ar
    16   10   11 ar
    17   11   12 ar
    18   11   32 1
    19   12   13 ar
    20   12   33 1
    21   13   14 ar
    22   13   34 1
    23   14   15 ar
    24   14   35 1
    25   15   16 1
    26   17   22 ar
    27   17   18 ar
    28   18   19 ar
    29   18   36 1
    30   19   20 ar
    31   19   37 1
    32   20   21 ar
    33   20   23 1
    34   21   22 ar
    35   21   38 1
    36   22   39 1
    37   23   28 ar
    38   23   24 ar
    39   24   25 ar
    40   24   40 1
    41   25   26 ar
    42   25   41 1
    43   26   27 ar
    44   26   42 1
    45   27   28 ar
    46   27   43 1
    47   28   44 1
@<TRIPOS>MOLECULE
ZINC03978715
   66    69     0     0     0
SMALL
USER_CHARGES
4-(3-hydroxy-10,13-dimethyl-2,3,4,5,6,7,8,9,11,12,14,15,16,17-tetradecahydro-1H-cyclopenta[a]phenanthren-17-yl)pentanoic acid
@<TRIPOS>ATOM
      1 C1         -5.4127    3.6977    3.5636 C.3       1 <0>        -0.1533
      2 C2         -4.2427    3.7184    4.5493 C.3       1 <0>        -0.0882
      3 H1         -3.9716    2.6961    4.8129 H         1 <0>         0.0727
      4 C3         -4.6530    4.4789    5.8119 C.3       1 <0>        -0.0924
      5 C4         -5.7706    3.7162    6.5261 C.3       1 <0>        -0.1572
      6 C5         -6.1747    4.4653    7.7698 C.2       1 <0>         0.4567
      7 O1         -5.6252    5.5028    8.0555 O.co2     1 <0>        -0.6430
      8 C6         -3.0460    4.4118    3.9040 C.3       1 <0>        -0.0751
      9 H2         -3.2841    5.4257    3.6083 H         1 <0>         0.0682
     10 C7         -1.8198    4.3804    4.8549 C.3       1 <0>        -0.1205
     11 C8         -0.6080    3.9164    3.9943 C.3       1 <0>        -0.1141
     12 C9         -1.1253    4.1266    2.5669 C.3       1 <0>        -0.0770
     13 H3         -1.1817    5.2338    2.4128 H         1 <0>         0.0586
     14 C10        -2.5697    3.6031    2.6787 C.3       1 <0>        -0.0501
     15 C11        -3.3159    3.8602    1.3937 C.3       1 <0>        -0.1086
     16 C12        -2.5389    3.2305    0.2215 C.3       1 <0>        -0.1099
     17 C13        -1.1413    3.8236    0.1260 C.3       1 <0>        -0.0646
     18 H4         -1.2511    4.9154    0.0307 H         1 <0>         0.0575
     19 C14        -0.3522    3.5576    1.4193 C.3       1 <0>        -0.0577
     20 H5          0.6068    4.1104    1.3383 H         1 <0>         0.0588
     21 C15        -0.0211    2.0772    1.5371 C.3       1 <0>        -0.1182
     22 C16         0.8606    1.6824    0.3398 C.3       1 <0>        -0.1130
     23 C17         0.0360    1.8684   -0.9366 C.3       1 <0>        -0.0664
     24 H6         -0.8746    1.2617   -0.8513 H         1 <0>         0.0650
     25 C18        -0.3647    3.3323   -1.0905 C.3       1 <0>        -0.0401
     26 C19         0.9030    4.1789   -1.2534 C.3       1 <0>        -0.1061
     27 C20         1.6848    3.7412   -2.4864 C.3       1 <0>        -0.1476
     28 C21         2.0459    2.2625   -2.4238 C.3       1 <0>         0.1145
     29 H7          2.4603    1.9704   -3.4038 H         1 <0>         0.0396
     30 C22         0.8328    1.3880   -2.1432 C.3       1 <0>        -0.1072
     31 O2          3.0619    2.0432   -1.4445 O.3       1 <0>        -0.5604
     32 C23        -1.2284    3.5008   -2.3464 C.3       1 <0>        -0.1470
     33 C24        -2.6589    2.1292    3.0679 C.3       1 <0>        -0.1498
     34 H8         -5.1830    3.0200    2.7413 H         1 <0>         0.0560
     35 H9         -6.3127    3.3565    4.0750 H         1 <0>         0.0565
     36 H10        -5.5757    4.7018    3.1721 H         1 <0>         0.0492
     37 H11        -3.7937    4.5707    6.4762 H         1 <0>         0.0595
     38 H12        -5.0084    5.4724    5.5383 H         1 <0>         0.0555
     39 H13        -6.6299    3.6245    5.8619 H         1 <0>         0.0630
     40 H14        -5.4152    2.7228    6.7997 H         1 <0>         0.0588
     41 H15        -1.6318    5.3775    5.2517 H         1 <0>         0.0602
     42 H16        -1.9926    3.6766    5.6669 H         1 <0>         0.0669
     43 H17         0.2554    4.5584    4.1842 H         1 <0>         0.0546
     44 H18        -0.3576    2.8795    4.1886 H         1 <0>         0.0670
     45 H19        -3.4131    4.9357    1.2252 H         1 <0>         0.0566
     46 H20        -4.3137    3.4162    1.4426 H         1 <0>         0.0711
     47 H21        -3.1060    3.4363   -0.6877 H         1 <0>         0.0565
     48 H22        -2.4759    2.1543    0.3573 H         1 <0>         0.0627
     49 H23        -0.9176    1.4646    1.4789 H         1 <0>         0.0693
     50 H24         0.5185    1.8792    2.4589 H         1 <0>         0.0595
     51 H25         1.1528    0.6397    0.4397 H         1 <0>         0.0541
     52 H26         1.7363    2.3226    0.3232 H         1 <0>         0.0780
     53 H27         1.5270    4.0738   -0.3660 H         1 <0>         0.0713
     54 H28         0.6158    5.2285   -1.3580 H         1 <0>         0.0561
     55 H29         2.6166    4.3256   -2.5332 H         1 <0>         0.0566
     56 H30         1.1260    3.9528   -3.3969 H         1 <0>         0.0706
     57 H31         1.1792    0.3619   -1.9444 H         1 <0>         0.0648
     58 H32         0.1938    1.3433   -3.0268 H         1 <0>         0.0729
     59 H33         3.8576    2.5764   -1.5771 H         1 <0>         0.3722
     60 H34        -2.1251    2.8878   -2.2557 H         1 <0>         0.0567
     61 H35        -1.5132    4.5475   -2.4537 H         1 <0>         0.0520
     62 H36        -0.6608    3.1870   -3.2225 H         1 <0>         0.0543
     63 H37        -2.3164    1.5126    2.2370 H         1 <0>         0.0538
     64 H38        -2.0313    1.9451    3.9399 H         1 <0>         0.0571
     65 H39        -3.6928    1.8779    3.3048 H         1 <0>         0.0638
     66 O3         -7.1451    3.9800    8.5600 O.co2     1 <0>        -0.7813
@<TRIPOS>BOND
     1    1    2 1
     2    1   34 1
     3    1   35 1
     4    1   36 1
     5    2    3 1
     6    2    4 1
     7    2    8 1
     8    4    5 1
     9    4   37 1
    10    4   38 1
    11    5    6 1
    12    5   39 1
    13    5   40 1
    14    6    7 2
    15    6   66 1
    16    8    9 1
    17    8   14 1
    18    8   10 1
    19   10   11 1
    20   10   41 1
    21   10   42 1
    22   11   12 1
    23   11   43 1
    24   11   44 1
    25   12   13 1
    26   12   19 1
    27   12   14 1
    28   14   15 1
    29   14   33 1
    30   15   16 1
    31   15   45 1
    32   15   46 1
    33   16   17 1
    34   16   47 1
    35   16   48 1
    36   17   18 1
    37   17   25 1
    38   17   19 1
    39   19   20 1
    40   19   21 1
    41   21   22 1
    42   21   49 1
    43   21   50 1
    44   22   23 1
    45   22   51 1
    46   22   52 1
    47   23   24 1
    48   23   30 1
    49   23   25 1
    50   25   26 1
    51   25   32 1
    52   26   27 1
    53   26   53 1
    54   26   54 1
    55   27   28 1
    56   27   55 1
    57   27   56 1
    58   28   29 1
    59   28   30 1
    60   28   31 1
    61   30   57 1
    62   30   58 1
    63   31   59 1
    64   32   60 1
    65   32   61 1
    66   32   62 1
    67   33   63 1
    68   33   64 1
    69   33   65 1
@<TRIPOS>MOLECULE
ZINC20847573
   46    49     0     0     0
SMALL
USER_CHARGES
(5R)-3-(indan-2-ylamino)-5-(p-tolyl)cyclohex-2-en-1-one
@<TRIPOS>ATOM
      1 C1          1.3940    7.7944   -0.2938 C.3       1 <0>        -0.1119
      2 C2          1.4015    6.2893   -0.2174 C.ar      1 <0>        -0.1027
      3 C3          1.9924    5.6548    0.8592 C.ar      1 <0>        -0.1207
      4 C4          1.9990    4.2743    0.9295 C.ar      1 <0>        -0.1152
      5 C5          1.4149    3.5282   -0.0771 C.ar      1 <0>        -0.0660
      6 C6          0.8290    4.1626   -1.1565 C.ar      1 <0>        -0.1096
      7 C7          0.8179    5.5432   -1.2242 C.ar      1 <0>        -0.1206
      8 C8          1.4224    2.0232   -0.0007 C.3       1 <0>        -0.0361
      9 H1          1.9421    1.7277    0.9226 H         1 <0>         0.0768
     10 C9          2.1457    1.4510   -1.2234 C.3       1 <0>        -0.0530
     11 C10         2.0911   -0.0527   -1.1799 C.2       1 <0>         0.2470
     12 C11         1.0596   -0.6981   -0.5940 C.2       1 <0>        -0.5430
     13 C12         0.0021   -0.0041    0.0020 C.2       1 <0>         0.3795
     14 O1         -0.9089   -0.6215    0.5176 O.3       1 <0>        -0.5982
     15 C13        -0.0184    1.5027    0.0103 C.3       1 <0>        -0.1465
     16 N1          3.1001   -0.7755   -1.7421 N.2       1 <0>        -0.7026
     17 C14         3.0598   -2.2395   -1.7076 C.3       1 <0>         0.0913
     18 C15         3.7327   -2.7769   -0.4267 C.3       1 <0>        -0.0826
     19 C16         4.4201   -4.0601   -0.8524 C.ar      1 <0>        -0.0804
     20 C17         4.9018   -5.1132   -0.0927 C.ar      1 <0>        -0.1147
     21 C18         5.4969   -6.1978   -0.7064 C.ar      1 <0>        -0.1296
     22 C19         5.6127   -6.2335   -2.0836 C.ar      1 <0>        -0.1311
     23 C20         5.1329   -5.1844   -2.8429 C.ar      1 <0>        -0.1144
     24 C21         4.5358   -4.0958   -2.2293 C.ar      1 <0>        -0.0841
     25 C22         3.9388   -2.8391   -2.8257 C.3       1 <0>        -0.0640
     26 H2          1.9007    8.2089    0.5902 H         1 <0>         0.0612
     27 H3          0.3552    8.1548   -0.3236 H         1 <0>         0.0650
     28 H4          1.9206    8.1180   -1.2037 H         1 <0>         0.0653
     29 H5          2.4487    6.2377    1.6457 H         1 <0>         0.1164
     30 H6          2.4606    3.7786    1.7707 H         1 <0>         0.1202
     31 H7          0.3766    3.5796   -1.9451 H         1 <0>         0.1224
     32 H8          0.3566    6.0389   -2.0655 H         1 <0>         0.1169
     33 H9          1.6554    1.8095   -2.1405 H         1 <0>         0.0670
     34 H10         3.1952    1.7804   -1.2160 H         1 <0>         0.0678
     35 H11         1.0653   -1.7981   -0.5934 H         1 <0>         0.0894
     36 H12        -0.5308    1.8610    0.9153 H         1 <0>         0.0652
     37 H13        -0.5480    1.8707   -0.8808 H         1 <0>         0.0735
     38 H14         1.9856   -2.4601   -1.7942 H         1 <0>         0.0539
     39 H15         4.4537   -2.0352   -0.0525 H         1 <0>         0.0785
     40 H16         2.9661   -2.9623    0.3401 H         1 <0>         0.0633
     41 H17         4.8118   -5.0860    0.9832 H         1 <0>         0.1148
     42 H18         5.8713   -7.0175   -0.1111 H         1 <0>         0.1167
     43 H19         6.0775   -7.0811   -2.5652 H         1 <0>         0.1166
     44 H20         5.2233   -5.2132   -3.9187 H         1 <0>         0.1147
     45 H21         3.3137   -3.0648   -3.7022 H         1 <0>         0.0591
     46 H22         4.7179   -2.1155   -3.1075 H         1 <0>         0.0845
@<TRIPOS>BOND
     1    1    2 1
     2    1   26 1
     3    1   27 1
     4    1   28 1
     5    2    7 ar
     6    2    3 ar
     7    3    4 ar
     8    3   29 1
     9    4    5 ar
    10    4   30 1
    11    5    6 ar
    12    5    8 1
    13    6    7 ar
    14    6   31 1
    15    7   32 1
    16    8    9 1
    17    8   15 1
    18    8   10 1
    19   10   11 1
    20   10   33 1
    21   10   34 1
    22   11   12 1
    23   11   16 2
    24   12   13 2
    25   12   35 1
    26   13   14 1
    27   13   15 1
    28   15   36 1
    29   15   37 1
    30   16   17 1
    31   17   25 1
    32   17   18 1
    33   17   38 1
    34   18   19 1
    35   18   39 1
    36   18   40 1
    37   19   24 ar
    38   19   20 ar
    39   20   21 ar
    40   20   41 1
    41   21   22 ar
    42   21   42 1
    43   22   23 ar
    44   22   43 1
    45   23   24 ar
    46   23   44 1
    47   24   25 1
    48   25   45 1
    49   25   46 1
@<TRIPOS>MOLECULE
ZINC06615433
   50    53     0     0     0
SMALL
USER_CHARGES

@<TRIPOS>ATOM
      1 C1          0.2636    1.0973    0.6385 C.3       1 <0>        -0.1437
      2 C2          0.3807   -0.4256    0.5491 C.3       1 <0>        -0.0622
      3 C3          1.2979   -0.9329    1.6637 C.3       1 <0>        -0.1471
      4 C4         -1.0058   -1.0538    0.7040 C.3       1 <0>        -0.1446
      5 C5          0.9672   -0.8131   -0.8099 C.3       1 <0>        -0.0692
      6 H1          0.3153   -0.4526   -1.6057 H         1 <0>         0.0769
      7 C6          1.0932   -2.3367   -0.8996 C.3       1 <0>        -0.1169
      8 C7          1.4390   -2.7487   -2.3309 C.3       1 <0>        -0.0518
      9 C8          2.6663   -1.9643   -2.7863 C.2       1 <0>        -0.0822
     10 C9          3.4668   -2.3568   -3.8732 C.2       1 <0>        -0.0011
     11 C10         4.5503   -1.5993   -4.2172 C.2       1 <0>        -0.1780
     12 S1          4.4820   -0.2876   -3.0070 S.3       1 <0>         0.0344
     13 C11         3.0349   -0.8303   -2.1387 C.2       1 <0>        -0.1548
     14 C12         2.3628   -0.1905   -0.9653 C.3       1 <0>        -0.0326
     15 C13         3.1390   -3.5794   -4.6372 C.2       1 <0>         0.1613
     16 N1          1.9605   -3.9112   -5.1109 N.2       1 <0>        -0.2750
     17 N2          2.0347   -5.0384   -5.7234 N.2       1 <0>        -0.3447
     18 C14         3.2641   -5.4962   -5.6790 C.2       1 <0>         0.3798
     19 N3          4.0125   -4.5811   -4.9912 N.pl3     1 <0>        -0.4807
     20 C15         5.4447   -4.6539   -4.6915 C.3       1 <0>         0.1605
     21 C16         5.6533   -5.4430   -3.4247 C.ar      1 <0>        -0.1032
     22 C17         5.5458   -4.8188   -2.1960 C.ar      1 <0>        -0.0985
     23 C18         5.7372   -5.5426   -1.0339 C.ar      1 <0>        -0.1325
     24 C19         6.0357   -6.8907   -1.1006 C.ar      1 <0>        -0.1175
     25 C20         6.1424   -7.5151   -2.3292 C.ar      1 <0>        -0.1278
     26 C21         5.9467   -6.7922   -3.4912 C.ar      1 <0>        -0.0737
     27 S2          3.8438   -7.0047   -6.3812 S.3       1 <0>        -0.8060
     28 H2          1.2513    1.5448    0.5281 H         1 <0>         0.0563
     29 H3         -0.3898    1.4587   -0.1556 H         1 <0>         0.0549
     30 H4         -0.1542    1.3733    1.6067 H         1 <0>         0.0526
     31 H5          0.8801   -0.6569    2.6318 H         1 <0>         0.0517
     32 H6          1.3813   -2.0178    1.6000 H         1 <0>         0.0590
     33 H7          2.2856   -0.4854    1.5533 H         1 <0>         0.0574
     34 H8         -1.6592   -0.6924   -0.0901 H         1 <0>         0.0552
     35 H9         -0.9223   -2.1387    0.6403 H         1 <0>         0.0605
     36 H10        -1.4236   -0.7777    1.6722 H         1 <0>         0.0523
     37 H11         1.8801   -2.6750   -0.2255 H         1 <0>         0.0635
     38 H12         0.1481   -2.7956   -0.6092 H         1 <0>         0.0713
     39 H13         1.6558   -3.8164   -2.3614 H         1 <0>         0.0726
     40 H14         0.5985   -2.5258   -2.9883 H         1 <0>         0.0828
     41 H15         5.2632   -1.7539   -5.0136 H         1 <0>         0.1828
     42 H16         2.2696    0.8826   -1.1322 H         1 <0>         0.0788
     43 H17         2.9487   -0.3730   -0.0645 H         1 <0>         0.0846
     44 H18         5.9636   -5.1447   -5.5149 H         1 <0>         0.1032
     45 H19         5.8404   -3.6467   -4.5615 H         1 <0>         0.0855
     46 H20         5.3126   -3.7656   -2.1440 H         1 <0>         0.1141
     47 H21         5.6539   -5.0547   -0.0740 H         1 <0>         0.1161
     48 H22         6.1859   -7.4560   -0.1927 H         1 <0>         0.1163
     49 H23         6.3759   -8.5682   -2.3813 H         1 <0>         0.1199
     50 H24         6.0264   -7.2809   -4.4510 H         1 <0>         0.1394
@<TRIPOS>BOND
     1    1    2 1
     2    1   28 1
     3    1   29 1
     4    1   30 1
     5    2    3 1
     6    2    4 1
     7    2    5 1
     8    3   31 1
     9    3   32 1
    10    3   33 1
    11    4   34 1
    12    4   35 1
    13    4   36 1
    14    5    6 1
    15    5   14 1
    16    5    7 1
    17    7    8 1
    18    7   37 1
    19    7   38 1
    20    8    9 1
    21    8   39 1
    22    8   40 1
    23    9   13 2
    24    9   10 1
    25   10   11 2
    26   10   15 1
    27   11   12 1
    28   11   41 1
    29   12   13 1
    30   13   14 1
    31   14   42 1
    32   14   43 1
    33   15   19 1
    34   15   16 2
    35   16   17 1
    36   17   18 2
    37   18   27 1
    38   18   19 1
    39   19   20 1
    40   20   21 1
    41   20   44 1
    42   20   45 1
    43   21   26 ar
    44   21   22 ar
    45   22   23 ar
    46   22   46 1
    47   23   24 ar
    48   23   47 1
    49   24   25 ar
    50   24   48 1
    51   25   26 ar
    52   25   49 1
    53   26   50 1
@<TRIPOS>MOLECULE
ZINC39941999
   66    69     0     0     0
SMALL
USER_CHARGES

@<TRIPOS>ATOM
      1 C1          0.1776    1.5127    0.1002 C.3       1 <0>        -0.1515
      2 C2          0.0021   -0.0041    0.0020 C.3       1 <0>        -0.0890
      3 H1         -1.0595   -0.2496    0.0309 H         1 <0>         0.0680
      4 C3          0.7133   -0.6769    1.1777 C.3       1 <0>        -0.0857
      5 C4          0.0293   -0.2742    2.4857 C.3       1 <0>        -0.1830
      6 C5          0.7298   -0.9369    3.6437 C.2       1 <0>         0.4869
      7 O1          1.6874   -1.6640    3.4416 O.co2     1 <0>        -0.7001
      8 O2          0.3390   -0.7460    4.7827 O.co2     1 <0>        -0.7113
      9 C6          0.6055   -0.5033   -1.3124 C.3       1 <0>        -0.0684
     10 H2          1.6562   -0.2219   -1.3824 H         1 <0>         0.0719
     11 C7          0.4422   -2.0356   -1.4394 C.3       1 <0>        -0.1200
     12 C8          0.1194   -2.3224   -2.9178 C.3       1 <0>        -0.1222
     13 C9          0.1448   -0.9501   -3.6429 C.3       1 <0>        -0.0722
     14 H3         -0.5838   -0.9028   -4.4522 H         1 <0>         0.0710
     15 C10        -0.1844    0.0457   -2.5149 C.3       1 <0>        -0.0474
     16 C11         0.1775    1.4735   -2.8457 C.3       1 <0>        -0.1211
     17 C12         1.6314    1.5897   -3.3009 C.3       1 <0>        -0.1163
     18 C13         1.8213    0.7070   -4.5408 C.3       1 <0>        -0.0687
     19 H4          1.1093    0.9993   -5.3126 H         1 <0>         0.0671
     20 C14         1.5749   -0.7532   -4.1539 C.3       1 <0>        -0.0723
     21 H5          2.2785   -1.0296   -3.3687 H         1 <0>         0.0748
     22 C15         1.8050   -1.6666   -5.3602 C.3       1 <0>        -0.1145
     23 C16         3.2430   -1.5119   -5.8564 C.3       1 <0>        -0.1127
     24 C17         3.9738   -0.4819   -4.9924 C.3       1 <0>        -0.0747
     25 H6          3.9915   -0.8225   -3.9571 H         1 <0>         0.0757
     26 C18         3.2500    0.8871   -5.0617 C.3       1 <0>        -0.0475
     27 C19         3.9703    1.9346   -4.2102 C.3       1 <0>        -0.1080
     28 C20         5.4003    2.1150   -4.7228 C.3       1 <0>        -0.1524
     29 C21         6.1462    0.7823   -4.6287 C.3       1 <0>         0.1004
     30 H7          6.1684    0.4506   -3.5906 H         1 <0>         0.0531
     31 C22         5.4075   -0.3191   -5.5011 C.3       1 <0>        -0.1037
     32 O3          7.4834    0.9500   -5.1041 O.3       1 <0>        -0.5717
     33 C23         3.2071    1.3542   -6.5180 C.3       1 <0>        -0.1452
     34 C24        -1.6815   -0.0231   -2.2069 C.3       1 <0>        -0.1448
     35 H8          1.1742    1.7863   -0.2461 H         1 <0>         0.0507
     36 H9         -0.5707    2.0059   -0.5201 H         1 <0>         0.0530
     37 H10         0.0543    1.8263    1.1368 H         1 <0>         0.0576
     38 H11         0.6644   -1.7595    1.0605 H         1 <0>         0.0585
     39 H12         1.7562   -0.3607    1.2007 H         1 <0>         0.0543
     40 H13         0.0782    0.8084    2.6029 H         1 <0>         0.0564
     41 H14        -1.0136   -0.5904    2.4627 H         1 <0>         0.0514
     42 H15         1.3689   -2.5346   -1.1559 H         1 <0>         0.0609
     43 H16        -0.3757   -2.3779   -0.8054 H         1 <0>         0.0642
     44 H17         0.8728   -2.9851   -3.3438 H         1 <0>         0.0616
     45 H18        -0.8690   -2.7736   -3.0045 H         1 <0>         0.0559
     46 H19        -0.4750    1.8313   -3.6421 H         1 <0>         0.0520
     47 H20         0.0305    2.0927   -1.9608 H         1 <0>         0.0794
     48 H21         1.8563    2.6266   -3.5504 H         1 <0>         0.0628
     49 H22         2.2937    1.2512   -2.5042 H         1 <0>         0.0678
     50 H23         1.6313   -2.7026   -5.0690 H         1 <0>         0.0626
     51 H24         1.1146   -1.3942   -6.1584 H         1 <0>         0.0570
     52 H25         3.7556   -2.4715   -5.7893 H         1 <0>         0.0598
     53 H26         3.2352   -1.1762   -6.8934 H         1 <0>         0.0625
     54 H27         3.4385    2.8838   -4.2756 H         1 <0>         0.0703
     55 H28         3.9957    1.6035   -3.1720 H         1 <0>         0.0698
     56 H29         5.3753    2.4451   -5.7613 H         1 <0>         0.0707
     57 H30         5.9124    2.8619   -4.1160 H         1 <0>         0.0611
     58 H31         5.9263   -1.2756   -5.4368 H         1 <0>         0.0664
     59 H32         5.3889    0.0144   -6.5386 H         1 <0>         0.0672
     60 H33         7.9985    1.6008   -4.6080 H         1 <0>         0.3760
     61 H34         2.6756    2.3038   -6.5795 H         1 <0>         0.0506
     62 H35         4.2241    1.4823   -6.8886 H         1 <0>         0.0574
     63 H36         2.6909    0.6091   -7.1235 H         1 <0>         0.0563
     64 H37        -1.9025    0.5965   -1.3379 H         1 <0>         0.0613
     65 H38        -2.2462    0.3404   -3.0655 H         1 <0>         0.0445
     66 H39        -1.9624   -1.0554   -1.9980 H         1 <0>         0.0552
@<TRIPOS>BOND
     1    1    2 1
     2    1   35 1
     3    1   36 1
     4    1   37 1
     5    2    3 1
     6    2    4 1
     7    2    9 1
     8    4    5 1
     9    4   38 1
    10    4   39 1
    11    5    6 1
    12    5   40 1
    13    5   41 1
    14    6    7 2
    15    6    8 1
    16    9   10 1
    17    9   15 1
    18    9   11 1
    19   11   12 1
    20   11   42 1
    21   11   43 1
    22   12   13 1
    23   12   44 1
    24   12   45 1
    25   13   14 1
    26   13   20 1
    27   13   15 1
    28   15   16 1
    29   15   34 1
    30   16   17 1
    31   16   46 1
    32   16   47 1
    33   17   18 1
    34   17   48 1
    35   17   49 1
    36   18   19 1
    37   18   26 1
    38   18   20 1
    39   20   21 1
    40   20   22 1
    41   22   23 1
    42   22   50 1
    43   22   51 1
    44   23   24 1
    45   23   52 1
    46   23   53 1
    47   24   25 1
    48   24   31 1
    49   24   26 1
    50   26   27 1
    51   26   33 1
    52   27   28 1
    53   27   54 1
    54   27   55 1
    55   28   29 1
    56   28   56 1
    57   28   57 1
    58   29   30 1
    59   29   31 1
    60   29   32 1
    61   31   58 1
    62   31   59 1
    63   32   60 1
    64   33   61 1
    65   33   62 1
    66   33   63 1
    67   34   64 1
    68   34   65 1
    69   34   66 1
@<TRIPOS>MOLECULE
ZINC45201924
   38    40     0     0     0
SMALL
USER_CHARGES

@<TRIPOS>ATOM
      1 C1         -0.0184    1.5028    0.0103 C.3       1 <0>        -0.1166
      2 C2          0.0021   -0.0041    0.0020 C.ar      1 <0>        -0.0698
      3 C3          0.0057   -0.6883   -1.1969 C.ar      1 <0>        -0.1284
      4 C4          0.0240   -2.0719   -1.2105 C.ar      1 <0>        -0.1079
      5 C5          0.0387   -2.7811   -0.0247 C.ar      1 <0>        -0.1192
      6 C6          0.0357   -2.1074    1.1877 C.ar      1 <0>         0.1877
      7 C7          0.0230   -0.7074    1.2039 C.ar      1 <0>        -0.0515
      8 C8          0.0259    0.0227    2.4943 C.ar      1 <0>        -0.0205
      9 C9          1.1434   -0.0638    3.3410 C.ar      1 <0>        -0.0916
     10 C10         1.1707    0.5949    4.5281 C.ar      1 <0>        -0.1086
     11 C11         0.0704    1.3769    4.9236 C.ar      1 <0>        -0.0488
     12 C12         0.0744    2.0684    6.1467 C.ar      1 <0>        -0.1049
     13 C13        -1.0053    2.8175    6.5018 C.ar      1 <0>        -0.1226
     14 C14        -2.1195    2.9104    5.6698 C.ar      1 <0>        -0.1238
     15 C15        -2.1600    2.2546    4.4781 C.ar      1 <0>        -0.1005
     16 C16        -1.0628    1.4717    4.0769 C.ar      1 <0>        -0.0462
     17 C17        -1.0690    0.7874    2.8516 C.ar      1 <0>        -0.0850
     18 N1          0.0505   -2.8225    2.3875 N.pl3     1 <0>        -0.5595
     19 C18         1.3269   -3.1812    3.0108 C.3       1 <0>         0.0886
     20 C19        -1.1094   -3.1826    2.9718 C.2       1 <0>         0.5916
     21 S1         -1.0912   -4.0591    4.4423 S.2       1 <0>        -0.8467
     22 O1         -2.2836   -2.8526    2.3985 O.3       1 <0>        -0.6472
     23 H1          1.0042    1.8801    0.0026 H         1 <0>         0.0677
     24 H2         -0.5455    1.8639   -0.8728 H         1 <0>         0.0646
     25 H3         -0.5286    1.8543    0.9071 H         1 <0>         0.0714
     26 H4         -0.0060   -0.1415   -2.1282 H         1 <0>         0.1213
     27 H5          0.0264   -2.6000   -2.1526 H         1 <0>         0.1223
     28 H6          0.0522   -3.8609   -0.0419 H         1 <0>         0.1223
     29 H7          1.9920   -0.6623    3.0440 H         1 <0>         0.1221
     30 H8          2.0369    0.5181    5.1686 H         1 <0>         0.1258
     31 H9          0.9303    2.0056    6.8025 H         1 <0>         0.1236
     32 H10        -0.9985    3.3476    7.4427 H         1 <0>         0.1186
     33 H11        -2.9633    3.5113    5.9755 H         1 <0>         0.1192
     34 H12        -3.0303    2.3350    3.8436 H         1 <0>         0.1242
     35 H13        -1.9239    0.8543    2.1950 H         1 <0>         0.1257
     36 H14         1.6346   -2.3875    3.6916 H         1 <0>         0.0517
     37 H15         1.2112   -4.1118    3.5663 H         1 <0>         0.0992
     38 H16         2.0847   -3.3112    2.2381 H         1 <0>         0.0517
@<TRIPOS>BOND
     1    1    2 1
     2    1   23 1
     3    1   24 1
     4    1   25 1
     5    2    7 ar
     6    2    3 ar
     7    3    4 ar
     8    3   26 1
     9    4    5 ar
    10    4   27 1
    11    5    6 ar
    12    5   28 1
    13    6    7 ar
    14    6   18 1
    15    7    8 1
    16    8   17 ar
    17    8    9 ar
    18    9   10 ar
    19    9   29 1
    20   10   11 ar
    21   10   30 1
    22   11   16 ar
    23   11   12 ar
    24   12   13 ar
    25   12   31 1
    26   13   14 ar
    27   13   32 1
    28   14   15 ar
    29   14   33 1
    30   15   16 ar
    31   15   34 1
    32   16   17 ar
    33   17   35 1
    34   18   19 1
    35   18   20 1
    36   19   36 1
    37   19   37 1
    38   19   38 1
    39   20   21 2
    40   20   22 1
@<TRIPOS>MOLECULE
ZINC59678691
   28    30     0     0     0
SMALL
USER_CHARGES

@<TRIPOS>ATOM
      1 C1         -1.1750    0.2113   -3.7295 C.ar      1 <0>        -0.0836
      2 C2         -1.0488    0.2125   -5.1045 C.ar      1 <0>        -0.0922
      3 C3         -0.8857   -0.9805   -5.7870 C.ar      1 <0>        -0.0385
      4 C4         -0.8485   -2.1779   -5.0939 C.ar      1 <0>        -0.0895
      5 C5         -0.9746   -2.1856   -3.7189 C.ar      1 <0>        -0.1022
      6 C6         -1.1380   -0.9894   -3.0309 C.ar      1 <0>        -0.1063
      7 S1         -1.2981   -0.9949   -1.2762 S.3       1 <0>         0.1209
      8 C7         -1.0104   -2.6743   -0.8273 C.2       1 <0>        -0.0486
      9 C8         -1.9785   -3.6463   -0.6874 C.2       1 <0>        -0.1226
     10 C9         -1.3273   -4.8237   -0.3251 C.2       1 <0>        -0.1616
     11 C10         0.0278   -4.5272   -0.2557 C.2       1 <0>         0.0516
     12 O1          0.1888   -3.2218   -0.5700 O.3       1 <0>        -0.0464
     13 C11         1.0506   -5.4256    0.0768 C.2       1 <0>         0.0138
     14 C12         2.3431   -4.9642    0.2679 C.2       1 <0>        -0.1433
     15 C13         2.8264   -3.6352    0.3493 C.2       1 <0>         0.4631
     16 O2          1.9807   -2.5836    0.2364 O.3       1 <0>        -0.5311
     17 N1          4.0991   -3.4466    0.5352 N.2       1 <0>        -0.6144
     18 C14         4.9529   -4.4741    0.6499 C.2       1 <0>         0.3839
     19 S2          6.6469   -4.4456    0.8954 S.2       1 <0>        -0.5131
     20 S3          3.8627   -5.8814    0.4880 S.3       1 <0>        -0.1521
     21 Br1        -3.8393   -3.4232   -0.9393 Br        1 <0>         0.0001
     22 Cl1        -0.7280   -0.9750   -7.5158 Cl        1 <0>        -0.0714
     23 H1         -1.2978    1.1429   -3.1971 H         1 <0>         0.1400
     24 H2         -1.0779    1.1453   -5.6481 H         1 <0>         0.1397
     25 H3         -0.7211   -3.1073   -5.6291 H         1 <0>         0.1365
     26 H4         -0.9458   -3.1203   -3.1786 H         1 <0>         0.1282
     27 H5         -1.7876   -5.7820   -0.1346 H         1 <0>         0.1689
     28 H6          0.8315   -6.4777    0.1841 H         1 <0>         0.1704
@<TRIPOS>BOND
     1    1    6 ar
     2    1    2 ar
     3    1   23 1
     4    2    3 ar
     5    2   24 1
     6    3    4 ar
     7    3   22 1
     8    4    5 ar
     9    4   25 1
    10    5    6 ar
    11    5   26 1
    12    6    7 1
    13    7    8 1
    14    8   12 1
    15    8    9 2
    16    9   10 1
    17    9   21 1
    18   10   11 2
    19   10   27 1
    20   11   12 1
    21   11   13 1
    22   13   14 2
    23   13   28 1
    24   14   20 1
    25   14   15 1
    26   15   16 1
    27   15   17 2
    28   17   18 1
    29   18   19 2
    30   18   20 1
@<TRIPOS>MOLECULE
ZINC19810135
   52    54     0     0     0
SMALL
USER_CHARGES
(2S)-2-(4-tert-butylphenyl)-1-(2-ethylphenyl)-4-oxo-6-sulfanyl-2,3-dihydropyrimidine-5-carbonitrile
@<TRIPOS>ATOM
      1 C1         -1.5876    3.0166   -3.3390 C.3       1 <0>        -0.1462
      2 C2         -0.9588    4.2823   -2.7529 C.3       1 <0>        -0.0811
      3 C3         -1.9833    5.0154   -1.9258 C.ar      1 <0>        -0.0758
      4 C4         -2.7368    6.0243   -2.4936 C.ar      1 <0>        -0.1198
      5 C5         -3.6729    6.7013   -1.7339 C.ar      1 <0>        -0.1158
      6 C6         -3.8625    6.3668   -0.4053 C.ar      1 <0>        -0.1237
      7 C7         -3.1166    5.3554    0.1669 C.ar      1 <0>        -0.0791
      8 C8         -2.1749    4.6736   -0.5935 C.ar      1 <0>         0.1624
      9 N1         -1.4176    3.6492   -0.0171 N.pl3     1 <0>        -0.5726
     10 C9         -0.0647    3.9128    0.4843 C.3       1 <0>         0.4285
     11 H1          0.2809    4.8729    0.0736 H         1 <0>         0.1060
     12 N2          0.8452    2.8596    0.0300 N.am      1 <0>        -0.7530
     13 C10         0.3964    1.6045   -0.1705 C.2       1 <0>         0.6020
     14 O1          1.1679    0.7249   -0.5081 O.2       1 <0>        -0.5704
     15 C11        -1.0247    1.3047    0.0195 C.2       1 <0>        -0.3213
     16 C12        -1.9279    2.3788    0.0843 C.2       1 <0>         0.4568
     17 S1         -3.6558    2.1049    0.2938 S.3       1 <0>        -0.7920
     18 C13        -1.4821   -0.0477    0.1304 C.1       1 <0>         0.3370
     19 N3         -1.8449   -1.1206    0.2183 N.1       1 <0>        -0.5002
     20 C14        -0.0853    3.9418    1.9909 C.ar      1 <0>        -0.1199
     21 C15        -1.2651    4.2063    2.6610 C.ar      1 <0>        -0.0890
     22 C16        -1.2850    4.2282    4.0430 C.ar      1 <0>        -0.1218
     23 C17        -0.1230    3.9959    4.7548 C.ar      1 <0>        -0.0675
     24 C18         1.0579    3.7366    4.0846 C.ar      1 <0>        -0.1229
     25 C19         1.0767    3.7095    2.7027 C.ar      1 <0>        -0.0899
     26 C20        -0.1434    4.0259    6.2614 C.3       1 <0>        -0.0284
     27 C21         0.8121    5.1105    6.7629 C.3       1 <0>        -0.1369
     28 C22        -1.5619    4.3319    6.7462 C.3       1 <0>        -0.1458
     29 C23         0.2988    2.6656    6.8046 C.3       1 <0>        -0.1402
     30 H2         -0.8398    2.4815   -3.9427 H         1 <0>         0.0529
     31 H3         -2.4425    3.2922   -3.9740 H         1 <0>         0.0503
     32 H4         -1.9325    2.3663   -2.5216 H         1 <0>         0.0675
     33 H5         -0.1039    4.0067   -2.1179 H         1 <0>         0.0728
     34 H6         -0.6138    4.9327   -3.5702 H         1 <0>         0.0647
     35 H7         -2.5914    6.2877   -3.5308 H         1 <0>         0.1194
     36 H8         -4.2576    7.4927   -2.1790 H         1 <0>         0.1179
     37 H9         -4.5945    6.8976    0.1853 H         1 <0>         0.1202
     38 H10        -3.2649    5.0950    1.2044 H         1 <0>         0.1280
     39 H11         1.9057    3.0892   -0.1509 H         1 <0>         0.4199
     40 H12        -2.1720    4.3922    2.1048 H         1 <0>         0.1341
     41 H13        -2.2075    4.4312    4.5667 H         1 <0>         0.1234
     42 H14         1.9658    3.5554    4.6407 H         1 <0>         0.1171
     43 H15         1.9994    3.5073    2.1790 H         1 <0>         0.1201
     44 H16         0.7972    5.1324    7.8626 H         1 <0>         0.0553
     45 H17         0.4941    6.0884    6.3723 H         1 <0>         0.0557
     46 H18         1.8319    4.8904    6.4143 H         1 <0>         0.0563
     47 H19        -1.5768    4.3538    7.8459 H         1 <0>         0.0552
     48 H20        -2.2488    3.5521    6.3856 H         1 <0>         0.0609
     49 H21        -1.8799    5.3098    6.3556 H         1 <0>         0.0586
     50 H22         0.2839    2.6875    7.9043 H         1 <0>         0.0555
     51 H23         1.3186    2.4455    6.4560 H         1 <0>         0.0566
     52 H24        -0.3882    1.8859    6.4440 H         1 <0>         0.0584
@<TRIPOS>BOND
     1    1    2 1
     2    1   30 1
     3    1   31 1
     4    1   32 1
     5    2    3 1
     6    2   33 1
     7    2   34 1
     8    3    8 ar
     9    3    4 ar
    10    4    5 ar
    11    4   35 1
    12    5    6 ar
    13    5   36 1
    14    6    7 ar
    15    6   37 1
    16    7    8 ar
    17    7   38 1
    18    8    9 1
    19    9   16 1
    20    9   10 1
    21   10   11 1
    22   10   12 1
    23   10   20 1
    24   12   13 am
    25   12   39 1
    26   13   14 2
    27   13   15 1
    28   15   16 2
    29   15   18 1
    30   16   17 1
    31   18   19 3
    32   20   25 ar
    33   20   21 ar
    34   21   22 ar
    35   21   40 1
    36   22   23 ar
    37   22   41 1
    38   23   24 ar
    39   23   26 1
    40   24   25 ar
    41   24   42 1
    42   25   43 1
    43   26   27 1
    44   26   28 1
    45   26   29 1
    46   27   44 1
    47   27   45 1
    48   27   46 1
    49   28   47 1
    50   28   48 1
    51   28   49 1
    52   29   50 1
    53   29   51 1
    54   29   52 1
@<TRIPOS>MOLECULE
ZINC25760127
   27    29     0     0     0
SMALL
USER_CHARGES
6,7-dichloro-3-(3,5-dichlorophenyl)-4-hydroxy-1H-1,2,4-benzotriazine
@<TRIPOS>ATOM
      1 C1          0.0401    4.3102   -0.7157 C.ar      1 <0>        -0.0311
      2 C2          1.1428    3.8333   -0.0045 C.ar      1 <0>         0.0107
      3 C3          1.0432    2.6354    0.7057 C.ar      1 <0>        -0.0671
      4 C4         -0.1437    1.9300    0.7008 C.ar      1 <0>        -0.0393
      5 C5         -1.2353    2.4109   -0.0022 C.ar      1 <0>        -0.0957
      6 C6         -1.1412    3.5955   -0.7128 C.ar      1 <0>        -0.0375
      7 Cl1        -2.5137    4.1872   -1.5961 Cl        1 <0>        -0.0639
      8 Cl2        -0.2695    0.4403    1.5832 Cl        1 <0>        -0.0677
      9 C7          2.4102    4.5930   -0.0038 C.2       1 <0>         0.3810
     10 N1          3.5386    3.9554    0.0814 N.2       1 <0>        -0.3512
     11 N2          4.7595    4.6456    0.0846 N.pl3     1 <0>        -0.6001
     12 C8          4.7804    5.9989   -0.2889 C.ar      1 <0>         0.1473
     13 C9          5.9672    6.6509   -0.5635 C.ar      1 <0>        -0.1584
     14 C10         5.9478    7.9888   -0.9303 C.ar      1 <0>        -0.0528
     15 C11         4.7469    8.6686   -1.0206 C.ar      1 <0>        -0.0216
     16 C12         3.5528    8.0170   -0.7453 C.ar      1 <0>        -0.1372
     17 C13         3.5676    6.6859   -0.3805 C.ar      1 <0>         0.1851
     18 N3          2.3777    5.9908   -0.1010 N.pl3     1 <0>        -0.3782
     19 O1          1.1635    6.6953    0.0849 O.3       1 <0>        -0.6452
     20 Cl3         4.7330   10.3428   -1.4795 Cl        1 <0>        -0.0751
     21 Cl4         7.4363    8.8126   -1.2762 Cl        1 <0>        -0.0795
     22 H1          0.1109    5.2364   -1.2667 H         1 <0>         0.1619
     23 H2          1.8926    2.2616    1.2580 H         1 <0>         0.1453
     24 H3         -2.1628    1.8576    0.0003 H         1 <0>         0.1406
     25 H4          5.6841    4.1264    0.3772 H         1 <0>         0.4485
     26 H5          6.9058    6.1214   -0.4930 H         1 <0>         0.1342
     27 H6          2.6157    8.5493   -0.8165 H         1 <0>         0.1470
@<TRIPOS>BOND
     1    1    6 ar
     2    1    2 ar
     3    1   22 1
     4    2    3 ar
     5    2    9 1
     6    3    4 ar
     7    3   23 1
     8    4    5 ar
     9    4    8 1
    10    5    6 ar
    11    5   24 1
    12    6    7 1
    13    9   18 1
    14    9   10 2
    15   10   11 1
    16   11   12 1
    17   11   25 1
    18   12   17 ar
    19   12   13 ar
    20   13   14 ar
    21   13   26 1
    22   14   15 ar
    23   14   21 1
    24   15   16 ar
    25   15   20 1
    26   16   17 ar
    27   16   27 1
    28   17   18 1
    29   18   19 1
@<TRIPOS>MOLECULE
ZINC37289013
   28    30     0     0     0
SMALL
USER_CHARGES

@<TRIPOS>ATOM
      1 C1         -0.0184    1.5028    0.0103 C.3       1 <0>        -0.1036
      2 C2          0.0021   -0.0041    0.0020 C.ar      1 <0>        -0.0938
      3 C3          0.0057   -0.6864   -1.2063 C.ar      1 <0>        -0.1338
      4 C4          0.0246   -2.0520   -1.2353 C.ar      1 <0>        -0.0702
      5 C5          0.0405   -2.7745   -0.0379 C.ar      1 <0>         0.0507
      6 C6          0.0368   -2.0830    1.1864 C.ar      1 <0>         0.0372
      7 C7          0.0228   -0.6952    1.1953 C.ar      1 <0>        -0.1072
      8 N1          0.0543   -3.0482    2.1750 N.pl3     1 <0>        -0.5737
      9 H1          0.0561   -2.8917    3.1323 H         1 <0>         0.4357
     10 C8          0.0678   -4.2667    1.5508 C.2       1 <0>         0.3790
     11 N2          0.0596   -4.0989    0.2503 N.2       1 <0>        -0.4974
     12 C9          0.0889   -5.5737    2.2388 C.ar      1 <0>        -0.1789
     13 C10         0.0908   -5.6327    3.6379 C.ar      1 <0>         0.3121
     14 C11         0.1108   -6.8640    4.2747 C.ar      1 <0>        -0.1534
     15 C12         0.1292   -8.0296    3.5306 C.ar      1 <0>        -0.0269
     16 C13         0.1274   -7.9764    2.1469 C.ar      1 <0>        -0.1530
     17 C14         0.1014   -6.7572    1.4973 C.ar      1 <0>         0.0777
     18 Cl1         0.0920   -6.6964   -0.2376 Cl        1 <0>        -0.0370
     19 Cl2         0.1507   -9.4472    1.2249 Cl        1 <0>        -0.0830
     20 Cl3         0.1132   -6.9428    6.0089 Cl        1 <0>        -0.0814
     21 O1          0.0736   -4.4878    4.3682 O.3       1 <0>        -0.6728
     22 H2          1.0042    1.8801    0.0026 H         1 <0>         0.0643
     23 H3         -0.5455    1.8639   -0.8728 H         1 <0>         0.0627
     24 H4         -0.5286    1.8543    0.9071 H         1 <0>         0.0606
     25 H5         -0.0069   -0.1322   -2.1331 H         1 <0>         0.1195
     26 H6          0.0269   -2.5729   -2.1814 H         1 <0>         0.1214
     27 H7          0.0243   -0.1588    2.1327 H         1 <0>         0.1154
     28 H8          0.1455   -8.9863    4.0314 H         1 <0>         0.1298
@<TRIPOS>BOND
     1    1    2 1
     2    1   22 1
     3    1   23 1
     4    1   24 1
     5    2    7 ar
     6    2    3 ar
     7    3    4 ar
     8    3   25 1
     9    4    5 ar
    10    4   26 1
    11    5   11 1
    12    5    6 ar
    13    6    7 ar
    14    6    8 1
    15    7   27 1
    16    8    9 1
    17    8   10 1
    18   10   11 2
    19   10   12 1
    20   12   17 ar
    21   12   13 ar
    22   13   14 ar
    23   13   21 1
    24   14   15 ar
    25   14   20 1
    26   15   16 ar
    27   15   28 1
    28   16   17 ar
    29   16   19 1
    30   17   18 1
@<TRIPOS>MOLECULE
ZINC48606410
   26    28     0     0     0
SMALL
USER_CHARGES

@<TRIPOS>ATOM
      1 C1         -0.0168    1.3900    0.0097 C.ar      1 <0>        -0.0578
      2 C2          1.1699    2.0936    0.0021 C.ar      1 <0>        -0.1256
      3 C3          2.3782    1.4176   -0.0135 C.ar      1 <0>        -0.0260
      4 C4          2.4025    0.0332   -0.0216 C.ar      1 <0>        -0.1265
      5 C5          1.2214   -0.6798   -0.0137 C.ar      1 <0>        -0.0598
      6 C6          0.0021   -0.0041    0.0020 C.ar      1 <0>        -0.0227
      7 C7         -1.2701   -0.7652    0.0106 C.ar      1 <0>         0.4131
      8 N1         -2.4186   -0.0897    0.0202 N.ar      1 <0>        -0.6221
      9 C8         -3.5846   -0.7124    0.0281 C.ar      1 <0>         0.4790
     10 O1         -4.7434   -0.0142    0.0373 O.3       1 <0>        -0.6497
     11 C9         -3.5908   -2.1279    0.0261 C.ar      1 <0>        -0.2310
     12 C10        -4.7808   -2.8645    0.0335 C.ar      1 <0>         0.0288
     13 C11        -4.7281   -4.2281    0.0308 C.ar      1 <0>        -0.1581
     14 C12        -3.5063   -4.8970    0.0208 C.ar      1 <0>        -0.0220
     15 C13        -2.3289   -4.2092    0.0138 C.ar      1 <0>        -0.1074
     16 C14        -2.3464   -2.8059    0.0158 C.ar      1 <0>         0.2318
     17 N2         -1.2184   -2.0839    0.0030 N.ar      1 <0>        -0.5897
     18 Br1        -0.6831   -5.1402    0.0015 Br        1 <0>        -0.0435
     19 Br2        -6.3360   -5.2234    0.0414 Br        1 <0>        -0.0657
     20 Cl1         3.8679    2.3089   -0.0235 Cl        1 <0>        -0.0832
     21 H1         -0.9588    1.9181    0.0260 H         1 <0>         0.1491
     22 H2          1.1563    3.1735    0.0081 H         1 <0>         0.1332
     23 H3          3.3476   -0.4893   -0.0345 H         1 <0>         0.1325
     24 H4          1.2414   -1.7596   -0.0204 H         1 <0>         0.1480
     25 H5         -5.7343   -2.3572    0.0416 H         1 <0>         0.1405
     26 H6         -3.4912   -5.9769    0.0188 H         1 <0>         0.1349
@<TRIPOS>BOND
     1    1    6 ar
     2    1    2 ar
     3    1   21 1
     4    2    3 ar
     5    2   22 1
     6    3    4 ar
     7    3   20 1
     8    4    5 ar
     9    4   23 1
    10    5    6 ar
    11    5   24 1
    12    6    7 1
    13    7   17 ar
    14    7    8 ar
    15    8    9 ar
    16    9   10 1
    17    9   11 ar
    18   11   16 ar
    19   11   12 ar
    20   12   13 ar
    21   12   25 1
    22   13   14 ar
    23   13   19 1
    24   14   15 ar
    25   14   26 1
    26   15   16 ar
    27   15   18 1
    28   16   17 ar
@<TRIPOS>MOLECULE
ZINC00286864
   41    44     0     0     0
SMALL
USER_CHARGES

@<TRIPOS>ATOM
      1 C1          0.3287   -0.2483    1.2019 C.3       1 <0>         0.0319
      2 O1          0.5187   -1.6075    0.8038 O.3       1 <0>        -0.3270
      3 C2          0.9981   -1.8221   -0.4499 C.ar      1 <0>         0.0887
      4 C3          1.2843   -0.7434   -1.2757 C.ar      1 <0>        -0.2064
      5 C4          1.7704   -0.9569   -2.5483 C.ar      1 <0>        -0.0768
      6 C5          1.9751   -2.2596   -3.0057 C.ar      1 <0>         0.0528
      7 C6          1.6865   -3.3413   -2.1723 C.ar      1 <0>        -0.0792
      8 C7          1.2057   -3.1192   -0.8991 C.ar      1 <0>        -0.1523
      9 C8          2.4961   -2.4932   -4.3709 C.2       1 <0>        -0.3819
     10 C9          1.7655   -3.1484   -5.4723 C.2       1 <0>         0.3357
     11 C10         2.6777   -3.1587   -6.6420 C.ar      1 <0>        -0.1134
     12 C11         2.5489   -3.6329   -7.9383 C.ar      1 <0>        -0.0896
     13 C12         3.6003   -3.4963   -8.8303 C.ar      1 <0>        -0.1291
     14 C13         4.7782   -2.8896   -8.4342 C.ar      1 <0>        -0.1173
     15 C14         4.9231   -2.4115   -7.1443 C.ar      1 <0>        -0.0907
     16 C15         3.8757   -2.5394   -6.2341 C.ar      1 <0>        -0.0757
     17 C16         3.7301   -2.1342   -4.8251 C.2       1 <0>         0.3376
     18 O2          4.6794   -1.5033   -4.0916 O.3       1 <0>        -0.6508
     19 N1          0.5454   -3.6288   -5.4263 N.2       1 <0>        -0.5484
     20 C17         0.0502   -4.3315   -6.4821 C.ar      1 <0>         0.1487
     21 C18         0.6050   -5.5699   -6.8257 C.ar      1 <0>        -0.1629
     22 C19         0.0974   -6.2751   -7.8958 C.ar      1 <0>        -0.1014
     23 C20        -0.9581   -5.7617   -8.6300 C.ar      1 <0>        -0.1637
     24 C21        -1.5126   -4.5378   -8.2969 C.ar      1 <0>        -0.1014
     25 C22        -1.0205   -3.8222   -7.2265 C.ar      1 <0>        -0.1494
     26 H1          1.2813    0.2797    1.1582 H         1 <0>         0.0504
     27 H2         -0.3834    0.2309    0.5300 H         1 <0>         0.0496
     28 H3         -0.0568   -0.2187    2.2210 H         1 <0>         0.0902
     29 H4          1.1257    0.2642   -0.9210 H         1 <0>         0.1150
     30 H5          1.9921   -0.1173   -3.1904 H         1 <0>         0.1150
     31 H6          1.8435   -4.3508   -2.5226 H         1 <0>         0.1176
     32 H7          0.9863   -3.9556   -0.2520 H         1 <0>         0.1170
     33 H8          1.6312   -4.1080   -8.2521 H         1 <0>         0.1262
     34 H9          3.4996   -3.8659   -9.8401 H         1 <0>         0.1201
     35 H10         5.5917   -2.7886   -9.1375 H         1 <0>         0.1206
     36 H11         5.8464   -1.9390   -6.8433 H         1 <0>         0.1248
     37 H12         1.4287   -5.9716   -6.2542 H         1 <0>         0.1153
     38 H13         0.5245   -7.2305   -8.1625 H         1 <0>         0.1146
     39 H14        -1.3510   -6.3191   -9.4675 H         1 <0>         0.1128
     40 H15        -2.3359   -4.1444   -8.8748 H         1 <0>         0.1153
     41 H16        -1.4571   -2.8695   -6.9652 H         1 <0>         0.1178
@<TRIPOS>BOND
     1    1    2 1
     2    1   26 1
     3    1   27 1
     4    1   28 1
     5    2    3 1
     6    3    8 ar
     7    3    4 ar
     8    4    5 ar
     9    4   29 1
    10    5    6 ar
    11    5   30 1
    12    6    7 ar
    13    6    9 1
    14    7    8 ar
    15    7   31 1
    16    8   32 1
    17    9   17 2
    18    9   10 1
    19   10   11 1
    20   10   19 2
    21   11   16 ar
    22   11   12 ar
    23   12   13 ar
    24   12   33 1
    25   13   14 ar
    26   13   34 1
    27   14   15 ar
    28   14   35 1
    29   15   16 ar
    30   15   36 1
    31   16   17 1
    32   17   18 1
    33   19   20 1
    34   20   25 ar
    35   20   21 ar
    36   21   22 ar
    37   21   37 1
    38   22   23 ar
    39   22   38 1
    40   23   24 ar
    41   23   39 1
    42   24   25 ar
    43   24   40 1
    44   25   41 1
@<TRIPOS>MOLECULE
ZINC06733088
   54    58     0     0     0
SMALL
USER_CHARGES

@<TRIPOS>ATOM
      1 C1         -0.0187    1.5258    0.0104 C.3       1 <0>        -0.1476
      2 C2          0.0021   -0.0041    0.0020 C.3       1 <0>        -0.0898
      3 C3          0.7074   -0.4901   -1.2379 C.ar      1 <0>        -0.0641
      4 C4         -0.0139   -0.7177   -2.3962 C.ar      1 <0>        -0.1152
      5 C5          0.6262   -1.1622   -3.5348 C.ar      1 <0>        -0.0945
      6 C6          2.0036   -1.3822   -3.5163 C.ar      1 <0>        -0.0464
      7 C7          2.7254   -1.1508   -2.3451 C.ar      1 <0>        -0.0799
      8 C8          2.0745   -0.7013   -1.2146 C.ar      1 <0>        -0.1137
      9 C9          2.6963   -1.8594   -4.7338 C.2       1 <0>         0.1747
     10 C10         3.6196   -2.8483   -4.7966 C.2       1 <0>        -0.2367
     11 C11         4.0226   -2.9795   -6.1427 C.2       1 <0>         0.3128
     12 N1          3.3693   -2.1103   -6.8565 N.2       1 <0>        -0.2945
     13 N2          2.5185   -1.3879   -6.0044 N.pl3     1 <0>        -0.4688
     14 H1          1.9132   -0.6780   -6.2701 H         1 <0>         0.4459
     15 N3          4.9820   -3.9293   -6.5100 N.pl3     1 <0>        -0.6150
     16 C12         5.7344   -4.5150   -5.5232 C.2       1 <0>         0.2601
     17 C13         6.9581   -5.2814   -5.9752 C.3       1 <0>        -0.0944
     18 C14         8.0485   -5.1881   -4.9069 C.3       1 <0>        -0.0513
     19 C15         7.4926   -5.7689   -3.6022 C.3       1 <0>        -0.1593
     20 C16         6.2376   -5.0286   -3.2362 C.2       1 <0>         0.4071
     21 C17         5.4187   -4.4326   -4.2134 C.2       1 <0>        -0.3008
     22 C18         4.1858   -3.7143   -3.7076 C.3       1 <0>         0.1506
     23 H2          4.4534   -3.0932   -2.8528 H         1 <0>         0.1007
     24 C19         3.1533   -4.7276   -3.2854 C.2       1 <0>        -0.1016
     25 C20         2.5869   -4.9126   -2.0679 C.2       1 <0>        -0.1511
     26 C21         1.6495   -5.9162   -1.9102 C.2       1 <0>        -0.1480
     27 C22         1.3244   -6.6856   -2.9777 C.2       1 <0>        -0.1863
     28 S1          2.3530   -5.9906   -4.2608 S.3       1 <0>         0.0204
     29 O1          5.9213   -4.9421   -2.0658 O.2       1 <0>        -0.4730
     30 C23         9.2736   -5.9912   -5.3485 C.3       1 <0>        -0.1421
     31 C24         8.4392   -3.7241   -4.6949 C.3       1 <0>        -0.1523
     32 H3          1.0039    1.9031    0.0027 H         1 <0>         0.0566
     33 H4         -0.5459    1.8868   -0.8726 H         1 <0>         0.0557
     34 H5         -0.5289    1.8773    0.9072 H         1 <0>         0.0600
     35 H6          0.5293   -0.3651    0.8851 H         1 <0>         0.0750
     36 H7         -1.0205   -0.3814    0.0098 H         1 <0>         0.0739
     37 H8         -1.0803   -0.5473   -2.4092 H         1 <0>         0.1265
     38 H9          0.0619   -1.3399   -4.4384 H         1 <0>         0.1222
     39 H10         3.7919   -1.3193   -2.3245 H         1 <0>         0.1281
     40 H11         2.6327   -0.5179   -0.3084 H         1 <0>         0.1288
     41 H12         6.6935   -6.3270   -6.1329 H         1 <0>         0.1029
     42 H13         7.3277   -4.8568   -6.9086 H         1 <0>         0.0931
     43 H14         7.2656   -6.8260   -3.7407 H         1 <0>         0.1003
     44 H15         8.2305   -5.6549   -2.8082 H         1 <0>         0.0973
     45 H16         2.8641   -4.2855   -1.2334 H         1 <0>         0.1292
     46 H17         1.1834   -6.0849   -0.9507 H         1 <0>         0.1291
     47 H18         0.6223   -7.5041   -3.0376 H         1 <0>         0.1805
     48 H19         5.1121   -4.1685   -7.4410 H         1 <0>         0.4227
     49 H20         9.6528   -5.5886   -6.2877 H         1 <0>         0.0616
     50 H21        10.0481   -5.9221   -4.5845 H         1 <0>         0.0646
     51 H22         8.9928   -7.0352   -5.4877 H         1 <0>         0.0611
     52 H23         7.5660   -3.1584   -4.3700 H         1 <0>         0.0607
     53 H24         9.2163   -3.6621   -3.9330 H         1 <0>         0.0634
     54 H25         8.8138   -3.3089   -5.6305 H         1 <0>         0.0606
@<TRIPOS>BOND
     1    1    2 1
     2    1   32 1
     3    1   33 1
     4    1   34 1
     5    2    3 1
     6    2   35 1
     7    2   36 1
     8    3    8 ar
     9    3    4 ar
    10    4    5 ar
    11    4   37 1
    12    5    6 ar
    13    5   38 1
    14    6    7 ar
    15    6    9 1
    16    7    8 ar
    17    7   39 1
    18    8   40 1
    19    9   13 1
    20    9   10 2
    21   10   22 1
    22   10   11 1
    23   11   12 2
    24   11   15 1
    25   12   13 1
    26   13   14 1
    27   15   16 1
    28   15   48 1
    29   16   21 2
    30   16   17 1
    31   17   18 1
    32   17   41 1
    33   17   42 1
    34   18   19 1
    35   18   30 1
    36   18   31 1
    37   19   43 1
    38   19   44 1
    39   19   20 1
    40   20   29 2
    41   20   21 1
    42   21   22 1
    43   22   23 1
    44   22   24 1
    45   24   28 1
    46   24   25 2
    47   25   26 1
    48   25   45 1
    49   26   27 2
    50   26   46 1
    51   27   28 1
    52   27   47 1
    53   30   49 1
    54   30   50 1
    55   30   51 1
    56   31   52 1
    57   31   53 1
    58   31   54 1
@<TRIPOS>MOLECULE
ZINC21883956
   37    40     0     0     0
SMALL
USER_CHARGES
N-(2-bromophenyl)-2-methyl-4-oxo-pyrimido[2,1-b][1,3]benzothiazole-3-sulfonamide
@<TRIPOS>ATOM
      1 C1         -1.8255    4.3952   -0.1252 C.3       1 <0>        -0.1839
      2 C2         -0.4649    3.7504   -0.1898 C.2       1 <0>         0.3083
      3 C3          0.6677    4.5121   -0.1165 C.2       1 <0>        -0.8237
      4 C4          1.9215    3.8989   -0.1774 C.2       1 <0>         0.5644
      5 O1          2.9365    4.5736   -0.1121 O.2       1 <0>        -0.4745
      6 N1          2.0084    2.5404   -0.3100 N.am      1 <0>        -0.4869
      7 C5          3.2005    1.8106   -0.3822 C.ar      1 <0>         0.1005
      8 C6          4.5042    2.3340   -0.3319 C.ar      1 <0>        -0.0842
      9 C7          5.5977    1.5061   -0.4132 C.ar      1 <0>        -0.0932
     10 C8          5.4531    0.1350   -0.5468 C.ar      1 <0>        -0.1050
     11 C9          4.1814   -0.4070   -0.5989 C.ar      1 <0>        -0.0541
     12 C10         3.0871    0.4232   -0.5174 C.ar      1 <0>        -0.1416
     13 S1          1.3314    0.1575   -0.5417 S.3       1 <0>         0.1419
     14 C11         0.8290    1.8568   -0.3756 C.2       1 <0>         0.3702
     15 N2         -0.3484    2.4301   -0.3140 N.2       1 <0>        -0.5048
     16 S2          0.5468    6.2617    0.0536 S.o2      1 <0>         2.6110
     17 O2          1.7830    6.7998   -0.3953 O.2       1 <0>        -1.0108
     18 O3         -0.6997    6.6398   -0.5143 O.2       1 <0>        -0.9858
     19 N3          0.4480    6.5905    1.6737 N.2       1 <0>        -1.0718
     20 C12         1.5240    6.2929    2.5138 C.ar      1 <0>         0.2535
     21 C13         2.7317    6.9618    2.3615 C.ar      1 <0>        -0.1517
     22 C14         3.7921    6.6684    3.1965 C.ar      1 <0>        -0.0934
     23 C15         3.6559    5.7027    4.1770 C.ar      1 <0>        -0.1754
     24 C16         2.4568    5.0312    4.3288 C.ar      1 <0>        -0.0876
     25 C17         1.3902    5.3231    3.5000 C.ar      1 <0>        -0.1257
     26 Br1        -0.2491    4.4035    3.7073 Br        1 <0>        -0.0778
     27 H1         -1.7106    5.4844   -0.0234 H         1 <0>         0.1672
     28 H2         -2.3768    4.0020    0.7417 H         1 <0>         0.0872
     29 H3         -2.3822    4.1698   -1.0468 H         1 <0>         0.0873
     30 H4          4.6480    3.3994   -0.2284 H         1 <0>         0.1584
     31 H5          6.5891    1.9326   -0.3725 H         1 <0>         0.1391
     32 H6          6.3223   -0.5029   -0.6098 H         1 <0>         0.1424
     33 H7          4.0484   -1.4737   -0.7032 H         1 <0>         0.1428
     34 H8          2.8404    7.7132    1.5934 H         1 <0>         0.1266
     35 H9          4.7302    7.1907    3.0805 H         1 <0>         0.1095
     36 H10         4.4882    5.4723    4.8255 H         1 <0>         0.1104
     37 H11         2.3538    4.2776    5.0956 H         1 <0>         0.1112
@<TRIPOS>BOND
     1    1    2 1
     2    1   27 1
     3    1   28 1
     4    1   29 1
     5    2   15 1
     6    2    3 2
     7    3    4 1
     8    3   16 1
     9    4    5 2
    10    4    6 am
    11    6   14 1
    12    6    7 1
    13    7   12 ar
    14    7    8 ar
    15    8    9 ar
    16    8   30 1
    17    9   10 ar
    18    9   31 1
    19   10   11 ar
    20   10   32 1
    21   11   12 ar
    22   11   33 1
    23   12   13 1
    24   13   14 1
    25   14   15 2
    26   16   17 2
    27   16   18 2
    28   16   19 1
    29   19   20 1
    30   20   25 ar
    31   20   21 ar
    32   21   22 ar
    33   21   34 1
    34   22   23 ar
    35   22   35 1
    36   23   24 ar
    37   23   36 1
    38   24   25 ar
    39   24   37 1
    40   25   26 1
@<TRIPOS>MOLECULE
ZINC02792067
   42    44     0     0     0
SMALL
USER_CHARGES
4-[[3-[(2-chlorophenoxy)methyl]-4-methoxy-phenyl]methyleneamino]-3-(difluoromethyl)-1H-1,2,4-triazole-5-thione
@<TRIPOS>ATOM
      1 C1          1.6336    9.4873   -2.7547 C.3       1 <0>         0.0219
      2 O1          0.3356    8.9601   -3.0364 O.3       1 <0>        -0.3163
      3 C2         -0.0615    7.8804   -2.3141 C.ar      1 <0>         0.1552
      4 C3          0.7842    7.3413   -1.3527 C.ar      1 <0>        -0.2120
      5 C4          0.3837    6.2493   -0.6143 C.ar      1 <0>        -0.0193
      6 C5         -0.8717    5.6778   -0.8405 C.ar      1 <0>        -0.0925
      7 C6         -1.7191    6.2238   -1.8082 C.ar      1 <0>        -0.0180
      8 C7         -1.3120    7.3192   -2.5386 C.ar      1 <0>        -0.1344
      9 C8         -2.2247    7.9087   -3.5828 C.3       1 <0>         0.1160
     10 O2         -3.4428    7.1627   -3.6267 O.3       1 <0>        -0.2989
     11 C9         -4.3818    7.5666   -4.5226 C.ar      1 <0>         0.1453
     12 C10        -4.1382    8.6616   -5.3385 C.ar      1 <0>        -0.1989
     13 C11        -5.0917    9.0667   -6.2523 C.ar      1 <0>        -0.0762
     14 C12        -6.2933    8.3889   -6.3467 C.ar      1 <0>        -0.1493
     15 C13        -6.5417    7.3006   -5.5311 C.ar      1 <0>        -0.0735
     16 C14        -5.5886    6.8874   -4.6188 C.ar      1 <0>        -0.0710
     17 Cl1        -5.9009    5.5211   -3.5944 Cl        1 <0>        -0.0512
     18 C15        -1.3028    4.5066   -0.0564 C.2       1 <0>         0.1900
     19 N1         -0.5139    4.0009    0.8423 N.2       1 <0>        -0.2434
     20 N2         -0.9237    2.8877    1.5876 N.pl3     1 <0>        -0.3607
     21 C16        -0.7181    1.5718    1.2479 C.2       1 <0>         0.0983
     22 N3         -1.2348    0.8184    2.1653 N.2       1 <0>        -0.2808
     23 N4         -1.7922    1.6478    3.1482 N.2       1 <0>        -0.3645
     24 C17        -1.5867    2.9239    2.7609 C.2       1 <0>         0.3983
     25 S1         -2.0774    4.3305    3.6045 S.3       1 <0>        -0.7480
     26 C18        -0.0127    1.0858    0.0080 C.3       1 <0>         0.3664
     27 F1          1.2998    1.5701   -0.0019 F         1 <0>        -0.1934
     28 F2         -0.6893    1.5493   -1.1254 F         1 <0>        -0.2012
     29 H1          1.8270   10.3528   -3.4055 H         1 <0>         0.1020
     30 H2          2.3921    8.7125   -2.9399 H         1 <0>         0.0597
     31 H3          1.6808    9.8024   -1.7019 H         1 <0>         0.0605
     32 H4          1.7555    7.7812   -1.1813 H         1 <0>         0.1370
     33 H5          1.0403    5.8331    0.1354 H         1 <0>         0.1425
     34 H6         -2.6915    5.7878   -1.9837 H         1 <0>         0.1467
     35 H7         -2.4450    8.9559   -3.3282 H         1 <0>         0.0798
     36 H8         -1.7330    7.8661   -4.5659 H         1 <0>         0.0794
     37 H9         -3.2020    9.1946   -5.2622 H         1 <0>         0.1382
     38 H10        -4.9005    9.9168   -6.8904 H         1 <0>         0.1303
     39 H11        -7.0391    8.7104   -7.0585 H         1 <0>         0.1318
     40 H12        -7.4811    6.7730   -5.6065 H         1 <0>         0.1388
     41 H13        -2.2929    4.0609   -0.2326 H         1 <0>         0.1220
     42 H14         0.0404   -0.0104   -0.0659 H         1 <0>         0.1433
@<TRIPOS>BOND
     1    1    2 1
     2    1   29 1
     3    1   30 1
     4    1   31 1
     5    2    3 1
     6    3    8 ar
     7    3    4 ar
     8    4    5 ar
     9    4   32 1
    10    5    6 ar
    11    5   33 1
    12    6    7 ar
    13    6   18 1
    14    7    8 ar
    15    7   34 1
    16    8    9 1
    17    9   10 1
    18    9   35 1
    19    9   36 1
    20   10   11 1
    21   11   16 ar
    22   11   12 ar
    23   12   13 ar
    24   12   37 1
    25   13   14 ar
    26   13   38 1
    27   14   15 ar
    28   14   39 1
    29   15   16 ar
    30   15   40 1
    31   16   17 1
    32   18   19 2
    33   18   41 1
    34   19   20 1
    35   20   24 1
    36   20   21 1
    37   21   22 2
    38   21   26 1
    39   22   23 1
    40   23   24 2
    41   24   25 1
    42   26   27 1
    43   26   28 1
    44   26   42 1
@<TRIPOS>MOLECULE
ZINC17207515
   53    56     0     0     0
SMALL
USER_CHARGES

@<TRIPOS>ATOM
      1 C1          2.0993    0.9829    0.1843 C.3       1 <0>        -0.0786
      2 C2          1.2529   -0.2573    0.0562 C.2       1 <0>        -0.0076
      3 C3          1.3339   -1.1539   -0.9399 C.2       1 <0>        -0.0833
      4 C4          0.3268   -2.1866   -0.6523 C.2       1 <0>        -0.1639
      5 C5         -0.2857   -1.7991    0.5311 C.2       1 <0>         0.0661
      6 N1          0.2849   -0.6503    0.9395 N.pl3     1 <0>        -0.4019
      7 C6         -0.0661    0.0471    2.1034 C.ar      1 <0>         0.1326
      8 C7          0.1586   -0.5222    3.3497 C.ar      1 <0>        -0.0994
      9 C8         -0.1882    0.1670    4.4951 C.ar      1 <0>        -0.0978
     10 C9         -0.7593    1.4241    4.4015 C.ar      1 <0>        -0.0331
     11 C10        -0.9847    1.9935    3.1605 C.ar      1 <0>        -0.0976
     12 C11        -0.6340    1.3109    2.0123 C.ar      1 <0>        -0.0985
     13 Cl1        -1.1941    2.2880    5.8431 Cl        1 <0>        -0.0651
     14 C12        -1.3917   -2.5386    1.2388 C.3       1 <0>        -0.0884
     15 C13         0.0410   -3.3377   -1.4237 C.2       1 <0>         0.0853
     16 C14        -0.0706   -3.2384   -2.8014 C.2       1 <0>        -0.2800
     17 C15        -0.1775   -4.4385   -3.6566 C.2       1 <0>         0.5404
     18 N2         -0.2828   -4.2677   -4.9847 N.2       1 <0>        -0.6795
     19 C16        -0.2929   -3.0784   -5.5327 C.2       1 <0>         0.6403
     20 O1         -0.4019   -2.9973   -6.8730 O.3       1 <0>        -0.6534
     21 N3         -0.2002   -1.9222   -4.8264 N.am      1 <0>        -0.5678
     22 C17        -0.0944   -1.9312   -3.4804 C.2       1 <0>         0.5576
     23 O2         -0.0167   -0.8935   -2.8491 O.2       1 <0>        -0.5155
     24 C18        -0.2216   -0.6415   -5.5374 C.3       1 <0>         0.1506
     25 C19        -1.5359   -0.5086   -6.3093 C.3       1 <0>        -0.1359
     26 C20        -1.5583    0.8289   -7.0518 C.3       1 <0>        -0.1098
     27 C21        -0.3838    0.8886   -8.0306 C.3       1 <0>        -0.1176
     28 C22         0.9305    0.7557   -7.2587 C.3       1 <0>        -0.1097
     29 C23         0.9529   -0.5818   -6.5161 C.3       1 <0>        -0.1351
     30 O3         -0.1698   -5.5562   -3.1689 O.2       1 <0>        -0.5527
     31 H1          3.0038    0.7491    0.7458 H         1 <0>         0.0643
     32 H2          2.3705    1.3419   -0.8085 H         1 <0>         0.0793
     33 H3          1.5357    1.7549    0.7083 H         1 <0>         0.0585
     34 H4          2.0054   -1.1229   -1.7852 H         1 <0>         0.1383
     35 H5          0.6039   -1.5033    3.4233 H         1 <0>         0.1397
     36 H6         -0.0139   -0.2755    5.4647 H         1 <0>         0.1415
     37 H7         -1.4308    2.9746    3.0899 H         1 <0>         0.1414
     38 H8         -0.8057    1.7577    1.0441 H         1 <0>         0.1405
     39 H9         -0.9605   -3.2481    1.9450 H         1 <0>         0.0761
     40 H10        -2.0188   -1.8270    1.7759 H         1 <0>         0.0642
     41 H11        -1.9958   -3.0755    0.5074 H         1 <0>         0.0848
     42 H12        -0.0902   -4.2937   -0.9388 H         1 <0>         0.1378
     43 H13        -0.1379    0.1743   -4.8193 H         1 <0>         0.0855
     44 H14        -1.6196   -1.3243   -7.0274 H         1 <0>         0.1022
     45 H15        -2.3727   -0.5511   -5.6120 H         1 <0>         0.0489
     46 H16        -2.4946    0.9236   -7.6017 H         1 <0>         0.0583
     47 H17        -1.4746    1.6447   -6.3337 H         1 <0>         0.0535
     48 H18        -0.4675    0.0729   -8.7487 H         1 <0>         0.0666
     49 H19        -0.3997    1.8415   -8.5596 H         1 <0>         0.0537
     50 H20         1.7673    0.7982   -7.9559 H         1 <0>         0.0586
     51 H21         1.0142    1.5714   -6.5406 H         1 <0>         0.0537
     52 H22         1.8892   -0.6765   -5.9662 H         1 <0>         0.0496
     53 H23         0.8692   -1.3975   -7.2342 H         1 <0>         0.1021
@<TRIPOS>BOND
     1    1    2 1
     2    1   31 1
     3    1   32 1
     4    1   33 1
     5    2    6 1
     6    2    3 2
     7    3    4 1
     8    3   34 1
     9    4    5 2
    10    4   15 1
    11    5    6 1
    12    5   14 1
    13    6    7 1
    14    7   12 ar
    15    7    8 ar
    16    8    9 ar
    17    8   35 1
    18    9   10 ar
    19    9   36 1
    20   10   11 ar
    21   10   13 1
    22   11   12 ar
    23   11   37 1
    24   12   38 1
    25   14   39 1
    26   14   40 1
    27   14   41 1
    28   15   16 2
    29   15   42 1
    30   16   22 1
    31   16   17 1
    32   17   18 1
    33   17   30 2
    34   18   19 2
    35   19   20 1
    36   19   21 1
    37   21   22 am
    38   21   24 1
    39   22   23 2
    40   24   29 1
    41   24   25 1
    42   24   43 1
    43   25   26 1
    44   25   44 1
    45   25   45 1
    46   26   27 1
    47   26   46 1
    48   26   47 1
    49   27   28 1
    50   27   48 1
    51   27   49 1
    52   28   29 1
    53   28   50 1
    54   28   51 1
    55   29   52 1
    56   29   53 1
@<TRIPOS>MOLECULE
ZINC45865920
   43    45     0     0     0
SMALL
USER_CHARGES

@<TRIPOS>ATOM
      1 C1         -1.9643    1.7613   -1.5035 C.3       1 <0>        -0.6493
      2 S1         -1.8078   -0.0420   -1.3843 S.o2      1 <0>         2.5002
      3 O1         -1.2865   -0.4051   -0.1132 O.2       1 <0>        -0.9381
      4 O2         -2.9765   -0.6695   -1.8940 O.2       1 <0>        -0.9380
      5 C2         -0.5360   -0.4629   -2.5288 C.ar      1 <0>        -0.6283
      6 C3         -0.8558   -0.7507   -3.8425 C.ar      1 <0>        -0.0500
      7 C4          0.1420   -1.0808   -4.7404 C.ar      1 <0>        -0.0441
      8 C5          1.4597   -1.1228   -4.3247 C.ar      1 <0>        -0.5614
      9 C6          1.7796   -0.8342   -3.0113 C.ar      1 <0>        -0.0440
     10 C7          0.7823   -0.4998   -2.1144 C.ar      1 <0>        -0.0499
     11 S2          2.7314   -1.5448   -5.4690 S.o2      1 <0>         2.5918
     12 O3          3.8180   -2.0453   -4.7021 O.2       1 <0>        -1.0194
     13 O4          2.1144   -2.3024   -6.5008 O.2       1 <0>        -1.0194
     14 N1          3.2524   -0.1348   -6.1639 N.2       1 <0>        -1.0653
     15 C8          4.2701   -0.1623   -7.1240 C.ar      1 <0>         0.2789
     16 C9          4.8399   -1.3702   -7.4990 C.ar      1 <0>        -0.2360
     17 C10         5.8457   -1.3946   -8.4481 C.ar      1 <0>         0.0064
     18 C11         6.2854   -0.2163   -9.0250 C.ar      1 <0>        -0.1785
     19 C12         5.7215    0.9910   -8.6555 C.ar      1 <0>        -0.1448
     20 C13         4.7098    1.0230   -7.7098 C.ar      1 <0>         0.0662
     21 O5          4.1506    2.2094   -7.3499 O.3       1 <0>        -0.2373
     22 C14         4.6099    3.3390   -7.9494 C.ar      1 <0>         0.1023
     23 C15         4.0216    3.7921   -9.1216 C.ar      1 <0>        -0.1322
     24 C16         4.4905    4.9407   -9.7291 C.ar      1 <0>        -0.1096
     25 C17         5.5454    5.6385   -9.1703 C.ar      1 <0>        -0.1324
     26 C18         6.1334    5.1892   -8.0023 C.ar      1 <0>        -0.1096
     27 C19         5.6644    4.0445   -7.3874 C.ar      1 <0>        -0.1323
     28 Cl1         6.5584   -2.9068   -8.9162 Cl        1 <0>        -0.1003
     29 H1         -1.0145    2.2266   -1.2399 H         1 <0>         0.1334
     30 H2         -2.2327    2.0360   -2.5236 H         1 <0>         0.1334
     31 H3         -2.7396    2.1048   -0.8188 H         1 <0>         0.1320
     32 H4         -1.8853   -0.7179   -4.1672 H         1 <0>         0.1464
     33 H5         -0.1080   -1.3064   -5.7666 H         1 <0>         0.1478
     34 H6          2.8091   -0.8673   -2.6864 H         1 <0>         0.1478
     35 H7          1.0326   -0.2706   -1.0891 H         1 <0>         0.1465
     36 H8          4.4985   -2.2911   -7.0498 H         1 <0>         0.1173
     37 H9          7.0712   -0.2395   -9.7655 H         1 <0>         0.1193
     38 H10         6.0672    1.9089   -9.1075 H         1 <0>         0.1225
     39 H11         3.1981    3.2471   -9.5589 H         1 <0>         0.1295
     40 H12         4.0330    5.2939  -10.6414 H         1 <0>         0.1240
     41 H13         5.9109    6.5359   -9.6472 H         1 <0>         0.1209
     42 H14         6.9574    5.7358   -7.5681 H         1 <0>         0.1240
     43 H15         6.1209    3.6966   -6.4726 H         1 <0>         0.1295
@<TRIPOS>BOND
     1    1    2 1
     2    1   29 1
     3    1   30 1
     4    1   31 1
     5    2    3 2
     6    2    4 2
     7    2    5 1
     8    5   10 ar
     9    5    6 ar
    10    6    7 ar
    11    6   32 1
    12    7    8 ar
    13    7   33 1
    14    8    9 ar
    15    8   11 1
    16    9   10 ar
    17    9   34 1
    18   10   35 1
    19   11   12 2
    20   11   13 2
    21   11   14 1
    22   14   15 1
    23   15   20 ar
    24   15   16 ar
    25   16   17 ar
    26   16   36 1
    27   17   18 ar
    28   17   28 1
    29   18   19 ar
    30   18   37 1
    31   19   20 ar
    32   19   38 1
    33   20   21 1
    34   21   22 1
    35   22   27 ar
    36   22   23 ar
    37   23   24 ar
    38   23   39 1
    39   24   25 ar
    40   24   40 1
    41   25   26 ar
    42   25   41 1
    43   26   27 ar
    44   26   42 1
    45   27   43 1
@<TRIPOS>MOLECULE
ZINC00843367
   56    59     0     0     0
SMALL
USER_CHARGES

@<TRIPOS>ATOM
      1 C1         -1.8786   -2.7147   -2.7857 C.3       1 <0>        -0.1076
      2 C2         -1.5966   -2.1915   -1.4008 C.ar      1 <0>        -0.0865
      3 C3         -1.2017   -0.8777   -1.2258 C.ar      1 <0>        -0.1273
      4 C4         -0.9421   -0.3941    0.0431 C.ar      1 <0>        -0.1115
      5 C5         -1.0765   -1.2225    1.1404 C.ar      1 <0>        -0.0981
      6 C6         -1.4731   -2.5416    0.9680 C.ar      1 <0>         0.1658
      7 C7         -1.7382   -3.0229   -0.3073 C.ar      1 <0>        -0.1052
      8 N1         -1.6099   -3.3846    2.0790 N.am      1 <0>        -0.5341
      9 C8         -0.7375   -4.4004    2.2519 C.2       1 <0>         0.5660
     10 O1          0.1650   -4.5955    1.4588 O.2       1 <0>        -0.5286
     11 C9         -0.9132   -5.2645    3.4317 C.2       1 <0>        -0.2902
     12 C10        -0.0620   -6.3285    3.6839 C.2       1 <0>         0.0985
     13 C11        -0.1366   -7.0172    4.9176 C.2       1 <0>        -0.1680
     14 C12        -0.2586   -6.4244    6.2581 C.2       1 <0>        -0.0705
     15 C13        -0.2945   -7.4495    7.1244 C.2       1 <0>        -0.0130
     16 N2         -0.2050   -8.6272    6.4338 N.pl3     1 <0>        -0.3979
     17 C14        -0.1158   -8.3910    5.1115 C.2       1 <0>         0.0702
     18 C15        -0.0080   -9.4360    4.0310 C.3       1 <0>        -0.0867
     19 C16        -0.2111   -9.9000    7.0199 C.ar      1 <0>         0.1341
     20 C17         0.9153  -10.7079    6.9404 C.ar      1 <0>        -0.1192
     21 C18         0.9062  -11.9620    7.5191 C.ar      1 <0>        -0.0724
     22 C19        -0.2232  -12.4132    8.1771 C.ar      1 <0>        -0.1192
     23 C20        -1.3468  -11.6111    8.2576 C.ar      1 <0>        -0.0702
     24 C21        -1.3417  -10.3536    7.6863 C.ar      1 <0>        -0.1149
     25 C22        -2.5759  -12.1070    8.9748 C.3       1 <0>        -0.1152
     26 C23         2.1282  -12.8397    7.4328 C.3       1 <0>        -0.1136
     27 C24        -0.4137   -7.3228    8.6213 C.3       1 <0>        -0.0743
     28 C25        -2.0385   -4.9445    4.3343 C.2       1 <0>         0.5375
     29 N3         -2.8238   -3.8984    4.0291 N.2       1 <0>        -0.6719
     30 C26        -2.6158   -3.1613    2.9671 C.2       1 <0>         0.6346
     31 O2         -3.4484   -2.1270    2.7379 O.3       1 <0>        -0.6528
     32 O3         -2.2493   -5.6139    5.3316 O.2       1 <0>        -0.5222
     33 H1         -2.9290   -2.5532   -3.0282 H         1 <0>         0.0675
     34 H2         -1.2540   -2.1880   -3.5072 H         1 <0>         0.0637
     35 H3         -1.6568   -3.7812   -2.8234 H         1 <0>         0.0633
     36 H4         -1.0956   -0.2282   -2.0822 H         1 <0>         0.1191
     37 H5         -0.6336    0.6322    0.1766 H         1 <0>         0.1227
     38 H6         -0.8728   -0.8444    2.1313 H         1 <0>         0.1209
     39 H7         -2.0509   -4.0476   -0.4442 H         1 <0>         0.1172
     40 H8          0.6584   -6.6321    2.9388 H         1 <0>         0.1280
     41 H9         -0.3094   -5.3726    6.4981 H         1 <0>         0.1410
     42 H10         1.0424   -9.6619    3.8474 H         1 <0>         0.0740
     43 H11        -0.5243  -10.3418    4.3487 H         1 <0>         0.0649
     44 H12        -0.4642   -9.0600    3.1152 H         1 <0>         0.0820
     45 H13         1.7976  -10.3562    6.4263 H         1 <0>         0.1275
     46 H14        -0.2280  -13.3942    8.6288 H         1 <0>         0.1255
     47 H15        -2.2178   -9.7257    7.7536 H         1 <0>         0.1302
     48 H16        -2.5220  -11.8242   10.0261 H         1 <0>         0.0732
     49 H17        -3.4635  -11.6630    8.5242 H         1 <0>         0.0694
     50 H18        -2.6311  -13.1925    8.8930 H         1 <0>         0.0683
     51 H19         2.7739  -12.6488    8.2899 H         1 <0>         0.0721
     52 H20         1.8244  -13.8865    7.4328 H         1 <0>         0.0683
     53 H21         2.6701  -12.6187    6.5133 H         1 <0>         0.0679
     54 H22        -1.4666   -7.3236    8.9033 H         1 <0>         0.0668
     55 H23         0.0909   -8.1630    9.0983 H         1 <0>         0.0547
     56 H24         0.0485   -6.3902    8.9450 H         1 <0>         0.0762
@<TRIPOS>BOND
     1    1    2 1
     2    1   33 1
     3    1   34 1
     4    1   35 1
     5    2    7 ar
     6    2    3 ar
     7    3    4 ar
     8    3   36 1
     9    4    5 ar
    10    4   37 1
    11    5    6 ar
    12    5   38 1
    13    6    7 ar
    14    6    8 1
    15    7   39 1
    16    8   30 1
    17    8    9 am
    18    9   10 2
    19    9   11 1
    20   11   12 2
    21   11   28 1
    22   12   13 1
    23   12   40 1
    24   13   17 2
    25   13   14 1
    26   14   15 2
    27   14   41 1
    28   15   16 1
    29   15   27 1
    30   16   17 1
    31   16   19 1
    32   17   18 1
    33   18   42 1
    34   18   43 1
    35   18   44 1
    36   19   24 ar
    37   19   20 ar
    38   20   21 ar
    39   20   45 1
    40   21   22 ar
    41   21   26 1
    42   22   23 ar
    43   22   46 1
    44   23   24 ar
    45   23   25 1
    46   24   47 1
    47   25   48 1
    48   25   49 1
    49   25   50 1
    50   26   51 1
    51   26   52 1
    52   26   53 1
    53   27   54 1
    54   27   55 1
    55   27   56 1
    56   28   29 1
    57   28   32 2
    58   29   30 2
    59   30   31 1
@<TRIPOS>MOLECULE
ZINC33930974
   53    56     0     0     0
SMALL
USER_CHARGES

@<TRIPOS>ATOM
      1 C1         -1.9984   -2.4673   -1.7839 C.3       1 <0>        -0.1081
      2 C2         -0.9310   -1.9360   -0.8622 C.ar      1 <0>        -0.0814
      3 C3         -0.2134   -0.8077   -1.2143 C.ar      1 <0>        -0.1262
      4 C4          0.7668   -0.3172   -0.3712 C.ar      1 <0>        -0.0825
      5 C5          1.0319   -0.9534    0.8257 C.ar      1 <0>        -0.1100
      6 C6          0.3130   -2.0866    1.1820 C.ar      1 <0>         0.1693
      7 C7         -0.6744   -2.5733    0.3360 C.ar      1 <0>        -0.0970
      8 N1          0.5796   -2.7343    2.3957 N.am      1 <0>        -0.5337
      9 C8          0.2556   -2.1263    3.5568 C.2       1 <0>         0.5655
     10 O1         -0.2643   -1.0257    3.5662 O.2       1 <0>        -0.5278
     11 C9          0.5512   -2.8384    4.8118 C.2       1 <0>        -0.2874
     12 C10         0.2505   -2.2858    6.0467 C.2       1 <0>         0.0957
     13 C11         0.3670   -3.0688    7.2193 C.2       1 <0>        -0.1642
     14 C12        -0.0856   -4.4554    7.4083 C.2       1 <0>        -0.0685
     15 C13         0.2302   -4.7887    8.6700 C.2       1 <0>        -0.0137
     16 N2          0.8400   -3.7259    9.2784 N.pl3     1 <0>        -0.3995
     17 C14         0.9372   -2.6888    8.4261 C.2       1 <0>         0.0684
     18 C15         1.5546   -1.3480    8.7300 C.3       1 <0>        -0.0879
     19 C16         1.3034   -3.7198   10.6015 C.ar      1 <0>         0.1165
     20 C17         0.7183   -2.8794   11.5391 C.ar      1 <0>        -0.0833
     21 C18         1.1758   -2.8752   12.8421 C.ar      1 <0>        -0.1423
     22 C19         2.2176   -3.7085   13.2138 C.ar      1 <0>         0.1012
     23 C20         2.8025   -4.5475   12.2801 C.ar      1 <0>        -0.1407
     24 C21         2.3442   -4.5584   10.9774 C.ar      1 <0>        -0.0792
     25 F1          2.6641   -3.7026   14.4889 F         1 <0>        -0.1368
     26 C22        -0.0447   -6.1229    9.3146 C.3       1 <0>        -0.0757
     27 C23         1.1826   -4.1689    4.6938 C.2       1 <0>         0.5375
     28 N3          1.4459   -4.6437    3.4652 N.2       1 <0>        -0.6716
     29 C24         1.1552   -3.9667    2.3828 C.2       1 <0>         0.6347
     30 O2          1.4481   -4.5192    1.1893 O.3       1 <0>        -0.6513
     31 O3          1.4583   -4.8200    5.6875 O.2       1 <0>        -0.5231
     32 C25         1.5469    0.9124   -0.7590 C.3       1 <0>        -0.1070
     33 H1         -2.9533   -2.0013   -1.5408 H         1 <0>         0.0664
     34 H2         -1.7344   -2.2375   -2.8162 H         1 <0>         0.0639
     35 H3         -2.0796   -3.5473   -1.6614 H         1 <0>         0.0660
     36 H4         -0.4186   -0.3087   -2.1499 H         1 <0>         0.1189
     37 H5          1.7978   -0.5701    1.4836 H         1 <0>         0.1169
     38 H6         -1.2386   -3.4517    0.6127 H         1 <0>         0.1203
     39 H7         -0.0728   -1.2575    6.1139 H         1 <0>         0.1287
     40 H8         -0.5753   -5.0814    6.6771 H         1 <0>         0.1420
     41 H9          0.7913   -0.6778    9.1255 H         1 <0>         0.0750
     42 H10         2.3471   -1.4719    9.4681 H         1 <0>         0.0651
     43 H11         1.9719   -0.9247    7.8164 H         1 <0>         0.0831
     44 H12        -0.0939   -2.2291   11.2494 H         1 <0>         0.1399
     45 H13         0.7211   -2.2213   13.5716 H         1 <0>         0.1429
     46 H14         3.6148   -5.1966   12.5719 H         1 <0>         0.1436
     47 H15         2.7977   -5.2160   10.2505 H         1 <0>         0.1426
     48 H16         0.8039   -6.7872    9.1509 H         1 <0>         0.0678
     49 H17        -0.1968   -5.9848   10.3851 H         1 <0>         0.0551
     50 H18        -0.9399   -6.5617    8.8740 H         1 <0>         0.0773
     51 H19         1.0366    1.7997   -0.3842 H         1 <0>         0.0670
     52 H20         2.5468    0.8592   -0.3283 H         1 <0>         0.0635
     53 H21         1.6217    0.9678   -1.8450 H         1 <0>         0.0638
@<TRIPOS>BOND
     1    1    2 1
     2    1   33 1
     3    1   34 1
     4    1   35 1
     5    2    7 ar
     6    2    3 ar
     7    3    4 ar
     8    3   36 1
     9    4    5 ar
    10    4   32 1
    11    5    6 ar
    12    5   37 1
    13    6    7 ar
    14    6    8 1
    15    7   38 1
    16    8   29 1
    17    8    9 am
    18    9   10 2
    19    9   11 1
    20   11   12 2
    21   11   27 1
    22   12   13 1
    23   12   39 1
    24   13   17 2
    25   13   14 1
    26   14   15 2
    27   14   40 1
    28   15   16 1
    29   15   26 1
    30   16   17 1
    31   16   19 1
    32   17   18 1
    33   18   41 1
    34   18   42 1
    35   18   43 1
    36   19   24 ar
    37   19   20 ar
    38   20   21 ar
    39   20   44 1
    40   21   22 ar
    41   21   45 1
    42   22   23 ar
    43   22   25 1
    44   23   24 ar
    45   23   46 1
    46   24   47 1
    47   26   48 1
    48   26   49 1
    49   26   50 1
    50   27   28 1
    51   27   31 2
    52   28   29 2
    53   29   30 1
    54   32   51 1
    55   32   52 1
    56   32   53 1
@<TRIPOS>MOLECULE
ZINC60243530
   47    49     0     0     0
SMALL
USER_CHARGES

@<TRIPOS>ATOM
      1 C1         -0.0184    1.5028    0.0103 C.3       1 <0>        -0.1080
      2 C2          0.0021   -0.0041    0.0020 C.ar      1 <0>        -0.0992
      3 C3          0.0057   -0.6876   -1.1998 C.ar      1 <0>        -0.1177
      4 C4          0.0240   -2.0689   -1.2101 C.ar      1 <0>        -0.0976
      5 C5          0.0391   -2.7702   -0.0132 C.ar      1 <0>         0.0992
      6 C6          0.0359   -2.0820    1.1914 C.ar      1 <0>        -0.0973
      7 C7          0.0229   -0.7006    1.1962 C.ar      1 <0>        -0.1177
      8 C8          0.0523   -2.8406    2.4934 C.3       1 <0>        -0.1141
      9 O1          0.0567   -4.1291   -0.0207 O.3       1 <0>        -0.3002
     10 C9          1.3382   -4.7613   -0.0307 C.3       1 <0>         0.1150
     11 C10         1.1600   -6.2577   -0.0380 C.2       1 <0>         0.4112
     12 O2          2.2400   -7.0653   -0.0479 O.3       1 <0>        -0.6952
     13 N1         -0.0341   -6.7698   -0.0346 N.2       1 <0>        -0.6094
     14 C11        -0.1963   -8.1327   -0.0411 C.2       1 <0>         0.4566
     15 N2          0.7927   -9.0378   -0.0453 N.2       1 <0>        -0.5240
     16 C12         0.2880  -10.2438   -0.0507 C.2       1 <0>         0.2196
     17 N3         -1.0526  -10.1412   -0.0501 N.pl3     1 <0>        -0.4100
     18 N4         -1.3489   -8.7686   -0.0386 N.2       1 <0>        -0.3581
     19 C13        -2.0156  -11.2452   -0.0557 C.3       1 <0>         0.1810
     20 C14        -2.9599  -11.0940    1.1090 C.ar      1 <0>        -0.0788
     21 C15        -2.6510  -11.6681    2.3280 C.ar      1 <0>        -0.0973
     22 C16        -3.5166  -11.5293    3.3967 C.ar      1 <0>        -0.0966
     23 C17        -4.6920  -10.8158    3.2462 C.ar      1 <0>        -0.0858
     24 C18        -5.0007  -10.2416    2.0262 C.ar      1 <0>        -0.0936
     25 C19        -4.1321  -10.3765    0.9596 C.ar      1 <0>        -0.0741
     26 Br1        -5.8769  -10.6261    4.7076 Br        1 <0>        -0.0602
     27 C20         0.0269   -2.8133   -2.5204 C.3       1 <0>        -0.1138
     28 H1          1.0042    1.8801    0.0026 H         1 <0>         0.0656
     29 H2         -0.5455    1.8639   -0.8728 H         1 <0>         0.0626
     30 H3         -0.5286    1.8543    0.9071 H         1 <0>         0.0625
     31 H4         -0.0061   -0.1412   -2.1314 H         1 <0>         0.1195
     32 H5          0.0248   -0.1643    2.1337 H         1 <0>         0.1195
     33 H6          1.0838   -3.0099    2.8023 H         1 <0>         0.0660
     34 H7         -0.4655   -2.2614    3.2579 H         1 <0>         0.0615
     35 H8         -0.4495   -3.7992    2.3617 H         1 <0>         0.0810
     36 H9          1.8867   -4.4564   -0.9219 H         1 <0>         0.0592
     37 H10         1.8959   -4.4661    0.8580 H         1 <0>         0.0590
     38 H11         0.8517  -11.1651   -0.0552 H         1 <0>         0.1928
     39 H12        -2.5818  -11.2288   -0.9870 H         1 <0>         0.0848
     40 H13        -1.4830  -12.1924    0.0290 H         1 <0>         0.0978
     41 H14        -1.7334  -12.2254    2.4453 H         1 <0>         0.1295
     42 H15        -3.2753  -11.9781    4.3489 H         1 <0>         0.1304
     43 H16        -5.9184   -9.6845    1.9083 H         1 <0>         0.1320
     44 H17        -4.3710   -9.9247    0.0082 H         1 <0>         0.1345
     45 H18         1.0552   -2.9792   -2.8418 H         1 <0>         0.0659
     46 H19        -0.4736   -3.7734   -2.3940 H         1 <0>         0.0810
     47 H20        -0.4988   -2.2259   -3.2732 H         1 <0>         0.0614
@<TRIPOS>BOND
     1    1    2 1
     2    1   28 1
     3    1   29 1
     4    1   30 1
     5    2    7 ar
     6    2    3 ar
     7    3    4 ar
     8    3   31 1
     9    4    5 ar
    10    4   27 1
    11    5    6 ar
    12    5    9 1
    13    6    7 ar
    14    6    8 1
    15    7   32 1
    16    8   33 1
    17    8   34 1
    18    8   35 1
    19    9   10 1
    20   10   11 1
    21   10   36 1
    22   10   37 1
    23   11   12 1
    24   11   13 2
    25   13   14 1
    26   14   18 2
    27   14   15 1
    28   15   16 2
    29   16   17 1
    30   16   38 1
    31   17   18 1
    32   17   19 1
    33   19   20 1
    34   19   39 1
    35   19   40 1
    36   20   25 ar
    37   20   21 ar
    38   21   22 ar
    39   21   41 1
    40   22   23 ar
    41   22   42 1
    42   23   24 ar
    43   23   26 1
    44   24   25 ar
    45   24   43 1
    46   25   44 1
    47   27   45 1
    48   27   46 1
    49   27   47 1
@<TRIPOS>MOLECULE
ZINC22239200
   37    39     0     0     0
SMALL
USER_CHARGES
(5Z)-5-cinnamylidene-1-(3,5-dichlorophenyl)-2-thioxo-hexahydropyrimidine-4,6-dione
@<TRIPOS>ATOM
      1 C1          2.4569   -0.2901    5.7142 C.ar      1 <0>        -0.1148
      2 C2          2.3750    1.0907    5.7753 C.ar      1 <0>        -0.1262
      3 C3          1.5088    1.7709    4.9467 C.ar      1 <0>        -0.1023
      4 C4          0.7098    1.0614    4.0415 C.ar      1 <0>        -0.0680
      5 C5          0.7946   -0.3357    3.9907 C.ar      1 <0>        -0.0987
      6 C6          1.6707   -0.9995    4.8223 C.ar      1 <0>        -0.1214
      7 C7         -0.2158    1.7776    3.1548 C.2       1 <0>        -0.0607
      8 C8         -0.9895    1.0850    2.2777 C.2       1 <0>        -0.1800
      9 C9         -1.8686    1.7689    1.4275 C.2       1 <0>         0.0563
     10 C10        -2.7415    1.0577    0.6127 C.2       1 <0>        -0.2816
     11 C11        -3.6790    1.7443   -0.2946 C.2       1 <0>         0.5306
     12 O1         -3.7142    2.9590   -0.3544 O.3       1 <0>        -0.5170
     13 N1         -4.4972    0.9891   -1.0562 N.2       1 <0>        -0.6181
     14 C12        -4.4694   -0.3498   -0.9995 C.2       1 <0>         0.5390
     15 S1         -5.5454   -1.2260   -2.0023 S.2       1 <0>        -0.6747
     16 N2         -3.6443   -1.0391   -0.1991 N.am      1 <0>        -0.5108
     17 C13        -2.7661   -0.4159    0.6134 C.2       1 <0>         0.5637
     18 O2         -2.0182   -1.0530    1.3312 O.2       1 <0>        -0.5052
     19 C14        -3.6908   -2.4392   -0.2110 C.ar      1 <0>         0.1908
     20 C15        -4.4768   -3.1166    0.7115 C.ar      1 <0>        -0.0789
     21 C16        -4.5258   -4.4981    0.6937 C.ar      1 <0>        -0.0130
     22 C17        -3.7829   -5.2060   -0.2346 C.ar      1 <0>        -0.1001
     23 C18        -2.9943   -4.5333   -1.1514 C.ar      1 <0>        -0.0131
     24 C19        -2.9467   -3.1518   -1.1417 C.ar      1 <0>        -0.0731
     25 Cl1        -2.0637   -5.4250   -2.3144 Cl        1 <0>        -0.0596
     26 Cl2        -5.5143   -5.3457    1.8418 Cl        1 <0>        -0.0601
     27 H1          3.1383   -0.8168    6.3659 H         1 <0>         0.1213
     28 H2          2.9919    1.6363    6.4740 H         1 <0>         0.1228
     29 H3          1.4466    2.8481    4.9952 H         1 <0>         0.1253
     30 H4          0.1788   -0.8908    3.2987 H         1 <0>         0.1345
     31 H5          1.7411   -2.0764    4.7809 H         1 <0>         0.1247
     32 H6         -0.2831    2.8746    3.2003 H         1 <0>         0.1277
     33 H7         -0.9255   -0.0123    2.2354 H         1 <0>         0.1748
     34 H8         -1.8679    2.8687    1.4049 H         1 <0>         0.1462
     35 H9         -5.0528   -2.5647    1.4395 H         1 <0>         0.1372
     36 H10        -3.8188   -6.2854   -0.2438 H         1 <0>         0.1445
     37 H11        -2.3314   -2.6272   -1.8576 H         1 <0>         0.1380
@<TRIPOS>BOND
     1    1    6 ar
     2    1    2 ar
     3    1   27 1
     4    2    3 ar
     5    2   28 1
     6    3    4 ar
     7    3   29 1
     8    4    5 ar
     9    4    7 1
    10    5    6 ar
    11    5   30 1
    12    6   31 1
    13    7    8 2
    14    7   32 1
    15    8    9 1
    16    8   33 1
    17    9   10 2
    18    9   34 1
    19   10   17 1
    20   10   11 1
    21   11   12 1
    22   11   13 2
    23   13   14 1
    24   14   15 2
    25   14   16 1
    26   16   17 am
    27   16   19 1
    28   17   18 2
    29   19   24 ar
    30   19   20 ar
    31   20   21 ar
    32   20   35 1
    33   21   22 ar
    34   21   26 1
    35   22   23 ar
    36   22   36 1
    37   23   24 ar
    38   23   25 1
    39   24   37 1
@<TRIPOS>MOLECULE
ZINC17071476
   41    43     0     0     0
SMALL
USER_CHARGES

@<TRIPOS>ATOM
      1 C1         -0.0184    1.5028    0.0103 C.3       1 <0>        -0.1081
      2 C2          0.0021   -0.0041    0.0020 C.ar      1 <0>        -0.0797
      3 C3          0.0057   -0.6882   -1.1996 C.ar      1 <0>        -0.1203
      4 C4          0.0244   -2.0708   -1.2112 C.ar      1 <0>        -0.0731
      5 C5          0.0396   -2.7725   -0.0216 C.ar      1 <0>        -0.0815
      6 C6          0.0360   -2.0884    1.1863 C.ar      1 <0>         0.1658
      7 C7          0.0229   -0.7004    1.1947 C.ar      1 <0>        -0.1220
      8 N1          0.0513   -2.7983    2.3958 N.pl3     1 <0>        -0.4501
      9 C8         -0.9352   -2.8373    3.3453 C.2       1 <0>         0.1308
     10 N2         -0.5175   -3.6118    4.3064 N.2       1 <0>        -0.2685
     11 N3          0.6549   -4.0621    4.0340 N.2       1 <0>        -0.3398
     12 C9          1.0522   -3.6009    2.8707 C.2       1 <0>         0.3855
     13 S1          2.5852   -3.9470    2.0740 S.3       1 <0>        -0.7905
     14 C10        -2.2581   -2.1176    3.2891 C.3       1 <0>         0.0162
     15 S2         -3.4896   -3.1779    2.4830 S.3       1 <0>        -0.2232
     16 C11        -5.0038   -2.1792    2.4949 C.3       1 <0>        -0.0561
     17 C12        -6.1215   -2.9536    1.8452 C.ar      1 <0>        -0.0670
     18 C13        -6.3334   -2.8500    0.4832 C.ar      1 <0>        -0.1009
     19 C14        -7.3586   -3.5604   -0.1128 C.ar      1 <0>        -0.1212
     20 C15        -8.1717   -4.3747    0.6533 C.ar      1 <0>        -0.1187
     21 C16        -7.9592   -4.4789    2.0152 C.ar      1 <0>        -0.1213
     22 C17        -6.9312   -3.7719    2.6105 C.ar      1 <0>        -0.1007
     23 C18         0.0278   -2.8126   -2.5229 C.3       1 <0>        -0.1096
     24 H1          1.0042    1.8801    0.0026 H         1 <0>         0.0697
     25 H2         -0.5455    1.8639   -0.8728 H         1 <0>         0.0653
     26 H3         -0.5286    1.8543    0.9071 H         1 <0>         0.0631
     27 H4         -0.0065   -0.1416   -2.1310 H         1 <0>         0.1218
     28 H5          0.0539   -3.8524   -0.0311 H         1 <0>         0.1254
     29 H6          0.0249   -0.1655    2.1330 H         1 <0>         0.1193
     30 H7         -2.5874   -1.8830    4.3013 H         1 <0>         0.1055
     31 H8         -2.1456   -1.1944    2.7205 H         1 <0>         0.0895
     32 H9         -5.2754   -1.9433    3.5238 H         1 <0>         0.0899
     33 H10        -4.8336   -1.2547    1.9430 H         1 <0>         0.0880
     34 H11        -5.6982   -2.2139   -0.1153 H         1 <0>         0.1238
     35 H12        -7.5247   -3.4790   -1.1768 H         1 <0>         0.1224
     36 H13        -8.9731   -4.9291    0.1878 H         1 <0>         0.1207
     37 H14        -8.5946   -5.1148    2.6138 H         1 <0>         0.1226
     38 H15        -6.7629   -3.8562    3.6739 H         1 <0>         0.1249
     39 H16         1.0562   -2.9776   -2.8444 H         1 <0>         0.0720
     40 H17        -0.4724   -3.7731   -2.3984 H         1 <0>         0.0660
     41 H18        -0.4979   -2.2239   -3.2746 H         1 <0>         0.0641
@<TRIPOS>BOND
     1    1    2 1
     2    1   24 1
     3    1   25 1
     4    1   26 1
     5    2    7 ar
     6    2    3 ar
     7    3    4 ar
     8    3   27 1
     9    4    5 ar
    10    4   23 1
    11    5    6 ar
    12    5   28 1
    13    6    7 ar
    14    6    8 1
    15    7   29 1
    16    8   12 1
    17    8    9 1
    18    9   10 2
    19    9   14 1
    20   10   11 1
    21   11   12 2
    22   12   13 1
    23   14   15 1
    24   14   30 1
    25   14   31 1
    26   15   16 1
    27   16   17 1
    28   16   32 1
    29   16   33 1
    30   17   22 ar
    31   17   18 ar
    32   18   19 ar
    33   18   34 1
    34   19   20 ar
    35   19   35 1
    36   20   21 ar
    37   20   36 1
    38   21   22 ar
    39   21   37 1
    40   22   38 1
    41   23   39 1
    42   23   40 1
    43   23   41 1
@<TRIPOS>MOLECULE
ZINC37574571
   26    27     0     0     0
SMALL
USER_CHARGES

@<TRIPOS>ATOM
      1 C1         -0.0167    1.3802    0.0096 C.ar      1 <0>        -0.1662
      2 C2          1.1709    2.0875    0.0021 C.ar      1 <0>         0.0030
      3 C3          2.3774    1.4134   -0.0130 C.ar      1 <0>        -0.6095
      4 C4          2.3978    0.0300   -0.0211 C.ar      1 <0>         0.0311
      5 C5          1.2109   -0.6791   -0.0141 C.ar      1 <0>        -0.1550
      6 C6          0.0021   -0.0041    0.0020 C.ar      1 <0>         0.1410
      7 F1         -1.1584   -0.6958    0.0094 F         1 <0>        -0.1322
      8 Br1         4.0493   -0.8910   -0.0425 Br        1 <0>         0.0059
      9 S1          3.8903    2.3164   -0.0226 S.o2      1 <0>         2.5944
     10 O1          4.6884    1.7608   -1.0588 O.2       1 <0>        -1.0011
     11 O2          3.5417    3.6935    0.0152 O.2       1 <0>        -1.0220
     12 N1          4.6671    1.9856    1.4020 N.2       1 <0>        -1.0521
     13 C7          5.9070    2.5701    1.6740 C.ar      1 <0>         0.3027
     14 C8          6.4864    3.4330    0.7531 C.ar      1 <0>        -0.2490
     15 C9          7.7129    4.0094    1.0252 C.ar      1 <0>         0.0322
     16 C10         8.3636    3.7270    2.2137 C.ar      1 <0>        -0.2099
     17 C11         7.7894    2.8679    3.1323 C.ar      1 <0>        -0.0585
     18 C12         6.5602    2.2934    2.8692 C.ar      1 <0>        -0.0892
     19 Cl1         5.8366    1.2209    4.0268 Cl        1 <0>        -0.0813
     20 Cl2         8.4383    5.0884   -0.1253 Cl        1 <0>        -0.0989
     21 H1         -0.9591    1.9075    0.0260 H         1 <0>         0.1464
     22 H2          1.1560    3.1673    0.0077 H         1 <0>         0.1572
     23 H3          1.2266   -1.7590   -0.0211 H         1 <0>         0.1489
     24 H4          5.9795    3.6532   -0.1748 H         1 <0>         0.1155
     25 H5          9.3220    4.1783    2.4238 H         1 <0>         0.1217
     26 H6          8.2999    2.6492    4.0586 H         1 <0>         0.1248
@<TRIPOS>BOND
     1    1    6 ar
     2    1    2 ar
     3    1   21 1
     4    2    3 ar
     5    2   22 1
     6    3    4 ar
     7    3    9 1
     8    4    5 ar
     9    4    8 1
    10    5    6 ar
    11    5   23 1
    12    6    7 1
    13    9   10 2
    14    9   11 2
    15    9   12 1
    16   12   13 1
    17   13   18 ar
    18   13   14 ar
    19   14   15 ar
    20   14   24 1
    21   15   16 ar
    22   15   20 1
    23   16   17 ar
    24   16   25 1
    25   17   18 ar
    26   17   26 1
    27   18   19 1
@<TRIPOS>MOLECULE
ZINC40312266
   32    34     0     0     0
SMALL
USER_CHARGES

@<TRIPOS>ATOM
      1 C1         -0.3192    1.2382   -0.0751 C.ar      1 <0>        -0.1382
      2 C2          0.7841    2.0461   -0.2934 C.ar      1 <0>        -0.1002
      3 C3          2.0476    1.4999   -0.4151 C.ar      1 <0>        -0.0929
      4 C4          2.2198    0.1197   -0.3186 C.ar      1 <0>        -0.0186
      5 C5          1.0920   -0.6986   -0.0994 C.ar      1 <0>        -0.1605
      6 C6         -0.1723   -0.1335    0.0229 C.ar      1 <0>        -0.0711
      7 C7          1.2928   -2.1621   -0.0078 C.2       1 <0>         0.4104
      8 O1          0.5032   -2.8909    0.5584 O.2       1 <0>        -0.4438
      9 C8          2.5400   -2.6854   -0.6634 C.2       1 <0>         0.2128
     10 C9          3.7244   -1.8123   -0.6056 C.2       1 <0>        -0.3040
     11 C10         3.5588   -0.4778   -0.4419 C.2       1 <0>         0.3023
     12 O2          4.6503    0.3247   -0.3917 O.3       1 <0>        -0.6572
     13 Cl1         5.3179   -2.4869   -0.7452 Cl        1 <0>        -0.0914
     14 N1          2.5716   -3.8506   -1.2518 N.2       1 <0>        -0.5044
     15 C11         1.3373   -4.6227   -1.4146 C.3       1 <0>         0.0635
     16 C12         1.4335   -5.8979   -0.6172 C.ar      1 <0>        -0.0586
     17 C13         1.9566   -7.0384   -1.1979 C.ar      1 <0>        -0.0872
     18 C14         2.0450   -8.2082   -0.4670 C.ar      1 <0>        -0.1199
     19 C15         1.6105   -8.2383    0.8450 C.ar      1 <0>        -0.0989
     20 C16         1.0876   -7.0975    1.4264 C.ar      1 <0>        -0.0915
     21 C17         1.0041   -5.9255    0.6961 C.ar      1 <0>        -0.0792
     22 Br1         0.4925   -7.1382    3.2208 Br        1 <0>        -0.0614
     23 H1         -1.2989    1.6819    0.0235 H         1 <0>         0.1242
     24 H2          0.6555    3.1157   -0.3697 H         1 <0>         0.1242
     25 H3          2.9001    2.1409   -0.5850 H         1 <0>         0.1390
     26 H4         -1.0341   -0.7616    0.1937 H         1 <0>         0.1282
     27 H5          0.4913   -4.0347   -1.0589 H         1 <0>         0.0614
     28 H6          1.1954   -4.8630   -2.4683 H         1 <0>         0.0851
     29 H7          2.2958   -7.0154   -2.2230 H         1 <0>         0.1287
     30 H8          2.4533   -9.0990   -0.9211 H         1 <0>         0.1287
     31 H9          1.6790   -9.1526    1.4158 H         1 <0>         0.1276
     32 H10         0.5994   -5.0334    1.1508 H         1 <0>         0.1427
@<TRIPOS>BOND
     1    1    6 ar
     2    1    2 ar
     3    1   23 1
     4    2    3 ar
     5    2   24 1
     6    3    4 ar
     7    3   25 1
     8    4   11 1
     9    4    5 ar
    10    5    6 ar
    11    5    7 1
    12    6   26 1
    13    7    8 2
    14    7    9 1
    15    9   10 1
    16    9   14 2
    17   10   11 2
    18   10   13 1
    19   11   12 1
    20   14   15 1
    21   15   16 1
    22   15   27 1
    23   15   28 1
    24   16   21 ar
    25   16   17 ar
    26   17   18 ar
    27   17   29 1
    28   18   19 ar
    29   18   30 1
    30   19   20 ar
    31   19   31 1
    32   20   21 ar
    33   20   22 1
    34   21   32 1
@<TRIPOS>MOLECULE
ZINC59168880
   37    39     0     0     0
SMALL
USER_CHARGES

@<TRIPOS>ATOM
      1 C1          0.3433   -2.6333    2.8384 C.3       1 <0>        -0.1566
      2 C2          0.0439   -2.0091    1.4998 C.2       1 <0>         0.1941
      3 N1         -0.1736   -0.7332    1.4131 N.2       1 <0>        -0.2276
      4 N2         -0.0827    0.0721    2.5560 N.pl3     1 <0>        -0.3583
      5 C3          1.0342    0.7022    3.0383 C.2       1 <0>         0.1298
      6 N3          0.6816    1.3442    4.1168 N.2       1 <0>        -0.2848
      7 N4         -0.5696    1.1662    4.3492 N.2       1 <0>        -0.3380
      8 C4         -1.0927    0.3986    3.4208 C.2       1 <0>         0.3797
      9 S1         -2.7740   -0.1170    3.3114 S.3       1 <0>        -0.8030
     10 C5          2.4143    0.6606    2.4345 C.3       1 <0>         0.0222
     11 C6          2.5767    1.8093    1.4727 C.ar      1 <0>        -0.0742
     12 C7          2.2344    1.6510    0.1428 C.ar      1 <0>        -0.1027
     13 C8          2.3834    2.7047   -0.7394 C.ar      1 <0>        -0.1221
     14 C9          2.8742    3.9169   -0.2917 C.ar      1 <0>        -0.1250
     15 C10         3.2156    4.0756    1.0384 C.ar      1 <0>        -0.1236
     16 C11         3.0626    3.0231    1.9215 C.ar      1 <0>        -0.1017
     17 C12        -0.0019   -2.8490    0.2881 C.ar      1 <0>        -0.0412
     18 C13         0.2261   -4.2243    0.3786 C.ar      1 <0>        -0.0714
     19 C14         0.1814   -5.0041   -0.7581 C.ar      1 <0>        -0.1188
     20 C15        -0.0881   -4.4275   -1.9867 C.ar      1 <0>        -0.0753
     21 C16        -0.3151   -3.0653   -2.0844 C.ar      1 <0>        -0.0963
     22 C17        -0.2791   -2.2739   -0.9539 C.ar      1 <0>        -0.0423
     23 Br1        -0.6818   -2.2883   -3.7689 Br        1 <0>        -0.0477
     24 H1         -0.5769   -3.0278    3.2693 H         1 <0>         0.0974
     25 H2          1.0605   -3.4438    2.7090 H         1 <0>         0.0819
     26 H3          0.7628   -1.8798    3.5049 H         1 <0>         0.0752
     27 H4          3.1597    0.7410    3.2257 H         1 <0>         0.0982
     28 H5          2.5497   -0.2809    1.9021 H         1 <0>         0.0752
     29 H6          1.8509    0.7039   -0.2070 H         1 <0>         0.1184
     30 H7          2.1166    2.5808   -1.7786 H         1 <0>         0.1189
     31 H8          2.9912    4.7400   -0.9811 H         1 <0>         0.1174
     32 H9          3.5994    5.0225    1.3882 H         1 <0>         0.1195
     33 H10         3.3259    3.1482    2.9615 H         1 <0>         0.1248
     34 H11         0.4373   -4.6759    1.3367 H         1 <0>         0.1384
     35 H12         0.3575   -6.0674   -0.6891 H         1 <0>         0.1379
     36 H13        -0.1212   -5.0428   -2.8736 H         1 <0>         0.1349
     37 H14        -0.4603   -1.2120   -1.0304 H         1 <0>         0.1465
@<TRIPOS>BOND
     1    1    2 1
     2    1   24 1
     3    1   25 1
     4    1   26 1
     5    2    3 2
     6    2   17 1
     7    3    4 1
     8    4    8 1
     9    4    5 1
    10    5    6 2
    11    5   10 1
    12    6    7 1
    13    7    8 2
    14    8    9 1
    15   10   11 1
    16   10   27 1
    17   10   28 1
    18   11   16 ar
    19   11   12 ar
    20   12   13 ar
    21   12   29 1
    22   13   14 ar
    23   13   30 1
    24   14   15 ar
    25   14   31 1
    26   15   16 ar
    27   15   32 1
    28   16   33 1
    29   17   22 ar
    30   17   18 ar
    31   18   19 ar
    32   18   34 1
    33   19   20 ar
    34   19   35 1
    35   20   21 ar
    36   20   36 1
    37   21   22 ar
    38   21   23 1
    39   22   37 1
@<TRIPOS>MOLECULE
ZINC03978670
   64    67     0     0     0
SMALL
USER_CHARGES
4-(3-hydroxy-10,13-dimethyl-2,3,4,5,6,7,8,9,14,15,16,17-dodecahydro-1H-cyclopenta[a]phenanthren-17-yl)pentanoic acid
@<TRIPOS>ATOM
      1 C1          3.0324    4.5465    0.0471 C.3       1 <0>        -0.1514
      2 C2          1.7373    4.4693   -0.7640 C.3       1 <0>        -0.0857
      3 H1          1.9593    4.1137   -1.7701 H         1 <0>         0.0700
      4 C3          1.1014    5.8586   -0.8428 C.3       1 <0>        -0.0921
      5 C4          2.0182    6.7951   -1.6323 C.3       1 <0>        -0.1568
      6 C5          1.3918    8.1636   -1.7099 C.2       1 <0>         0.4567
      7 O1          0.3219    8.3688   -1.1874 O.co2     1 <0>        -0.6430
      8 C6          0.7684    3.5038   -0.0852 C.3       1 <0>        -0.0722
      9 H2          0.4971    3.8498    0.9062 H         1 <0>         0.0702
     10 C7         -0.4939    3.2891   -0.9620 C.3       1 <0>        -0.1208
     11 C8         -0.7395    1.7529   -1.0147 C.3       1 <0>        -0.1088
     12 C9          0.1230    1.2368    0.1358 C.3       1 <0>        -0.0756
     13 H3         -0.3845    1.5548    1.0713 H         1 <0>         0.0585
     14 C10         1.3963    2.1034    0.0000 C.3       1 <0>        -0.0275
     15 C11         2.2765    1.8411    1.1760 C.2       1 <0>        -0.1358
     16 C12         2.4784    0.5480    1.4772 C.2       1 <0>        -0.1625
     17 C13         1.8942   -0.4850    0.5563 C.3       1 <0>        -0.0397
     18 H4          2.4423   -0.4582   -0.3933 H         1 <0>         0.0778
     19 C14         0.4174   -0.2099    0.2750 C.3       1 <0>        -0.0654
     20 H5         -0.1484   -0.5602    1.1549 H         1 <0>         0.0624
     21 C15        -0.0180   -1.0986   -0.8864 C.3       1 <0>        -0.1107
     22 C16         0.0845   -2.5518   -0.3958 C.3       1 <0>        -0.1129
     23 C17         1.5163   -2.8811    0.0155 C.3       1 <0>        -0.0669
     24 H6          2.1528   -2.7817   -0.8800 H         1 <0>         0.0602
     25 C18         2.0498   -1.9151    1.0754 C.3       1 <0>        -0.0405
     26 C19         1.2909   -2.1027    2.3830 C.3       1 <0>        -0.1008
     27 C20         1.4442   -3.5353    2.8893 C.3       1 <0>        -0.1493
     28 C21         0.9491   -4.5356    1.8515 C.3       1 <0>         0.1139
     29 H7          1.2053   -5.5489    2.2049 H         1 <0>         0.0399
     30 C22         1.6092   -4.3239    0.4971 C.3       1 <0>        -0.1058
     31 O2         -0.4726   -4.4652    1.7378 O.3       1 <0>        -0.5608
     32 C23         3.5462   -2.1820    1.2944 C.3       1 <0>        -0.1450
     33 C24         2.1346    1.8521   -1.3127 C.3       1 <0>        -0.1394
     34 H8          3.4854    3.5567    0.1032 H         1 <0>         0.0567
     35 H9          3.7240    5.2357   -0.4375 H         1 <0>         0.0546
     36 H10         2.8103    4.9020    1.0532 H         1 <0>         0.0488
     37 H11         0.1357    5.7884   -1.3434 H         1 <0>         0.0592
     38 H12         0.9608    6.2515    0.1642 H         1 <0>         0.0562
     39 H13         2.9838    6.8654   -1.1316 H         1 <0>         0.0627
     40 H14         2.1587    6.4022   -2.6392 H         1 <0>         0.0589
     41 H15        -1.3511    3.7880   -0.5097 H         1 <0>         0.0623
     42 H16        -0.3234    3.6758   -1.9663 H         1 <0>         0.0676
     43 H17        -0.4316    1.3353   -1.9685 H         1 <0>         0.0666
     44 H18        -1.7935    1.5319   -0.8280 H         1 <0>         0.0577
     45 H19         2.7043    2.6446    1.7782 H         1 <0>         0.1187
     46 H20         3.0460    0.2741    2.3652 H         1 <0>         0.1097
     47 H21        -1.0460   -0.8748   -1.1591 H         1 <0>         0.0640
     48 H22         0.6435   -0.9503   -1.7357 H         1 <0>         0.0592
     49 H23        -0.2246   -3.2203   -1.1999 H         1 <0>         0.0535
     50 H24        -0.5848   -2.6763    0.4540 H         1 <0>         0.0798
     51 H25         1.6817   -1.4123    3.1351 H         1 <0>         0.0595
     52 H26         0.2301   -1.8924    2.2348 H         1 <0>         0.0706
     53 H27         2.4808   -3.7431    3.1464 H         1 <0>         0.0702
     54 H28         0.8436   -3.6484    3.8022 H         1 <0>         0.0575
     55 H29         2.6556   -4.6357    0.5444 H         1 <0>         0.0731
     56 H30         1.1127   -4.9708   -0.2415 H         1 <0>         0.0650
     57 H31        -0.9430   -4.6605    2.5598 H         1 <0>         0.3727
     58 H32         3.9390   -1.4729    2.0230 H         1 <0>         0.0571
     59 H33         3.6836   -3.1977    1.6653 H         1 <0>         0.0531
     60 H34         4.0781   -2.0649    0.3502 H         1 <0>         0.0528
     61 H35         1.5272    2.2079   -2.1450 H         1 <0>         0.0603
     62 H36         3.0853    2.3852   -1.3028 H         1 <0>         0.0603
     63 H37         2.3182    0.7838   -1.4276 H         1 <0>         0.0528
     64 O3          2.0225    9.1545   -2.3595 O.co2     1 <0>        -0.7813
@<TRIPOS>BOND
     1    1    2 1
     2    1   34 1
     3    1   35 1
     4    1   36 1
     5    2    3 1
     6    2    4 1
     7    2    8 1
     8    4    5 1
     9    4   37 1
    10    4   38 1
    11    5    6 1
    12    5   39 1
    13    5   40 1
    14    6    7 2
    15    6   64 1
    16    8    9 1
    17    8   14 1
    18    8   10 1
    19   10   11 1
    20   10   41 1
    21   10   42 1
    22   11   12 1
    23   11   43 1
    24   11   44 1
    25   12   13 1
    26   12   19 1
    27   12   14 1
    28   14   15 1
    29   14   33 1
    30   15   16 2
    31   15   45 1
    32   16   17 1
    33   16   46 1
    34   17   18 1
    35   17   25 1
    36   17   19 1
    37   19   20 1
    38   19   21 1
    39   21   22 1
    40   21   47 1
    41   21   48 1
    42   22   23 1
    43   22   49 1
    44   22   50 1
    45   23   24 1
    46   23   30 1
    47   23   25 1
    48   25   26 1
    49   25   32 1
    50   26   27 1
    51   26   51 1
    52   26   52 1
    53   27   28 1
    54   27   53 1
    55   27   54 1
    56   28   29 1
    57   28   30 1
    58   28   31 1
    59   30   55 1
    60   30   56 1
    61   31   57 1
    62   32   58 1
    63   32   59 1
    64   32   60 1
    65   33   61 1
    66   33   62 1
    67   33   63 1
@<TRIPOS>MOLECULE
ZINC31833934
   31    32     0     0     0
SMALL
USER_CHARGES
5-bromo-4-[(N'Z)-N'-[(4-ethylphenyl)methylene]hydrazino]-1H-pyridazin-6-one
@<TRIPOS>ATOM
      1 C1          5.5147   -3.0764   -1.2266 C.3       1 <0>        -0.1483
      2 C2          5.0099   -2.8117    0.1932 C.3       1 <0>        -0.0867
      3 C3          3.6945   -2.0790    0.1302 C.ar      1 <0>        -0.0831
      4 C4          2.5099   -2.7929    0.0894 C.ar      1 <0>        -0.1085
      5 C5          1.3023   -2.1290    0.0312 C.ar      1 <0>        -0.1331
      6 C6          1.2771   -0.7323    0.0139 C.ar      1 <0>        -0.0781
      7 C7          2.4773   -0.0182    0.0500 C.ar      1 <0>        -0.0992
      8 C8          3.6772   -0.6954    0.1139 C.ar      1 <0>        -0.1155
      9 C9         -0.0099   -0.0154   -0.0481 C.2       1 <0>         0.0357
     10 N1         -1.1080   -0.6228    0.2843 N.2       1 <0>        -0.1739
     11 N2         -1.0576   -1.7777    1.0757 N.pl3     1 <0>        -0.5787
     12 C10        -2.2123   -2.5008    1.3189 C.ar      1 <0>         0.2327
     13 C11        -2.1691   -3.6654    2.1153 C.ar      1 <0>        -0.0845
     14 N3         -3.2555   -4.3476    2.3459 N.ar      1 <0>        -0.2051
     15 N4         -4.4854   -3.9468    1.8141 N.ar      1 <0>        -0.4607
     16 C12        -4.5736   -2.8415    1.0482 C.ar      1 <0>         0.4603
     17 O1         -5.6513   -2.4974    0.5875 O.3       1 <0>        -0.6077
     18 C13        -3.4212   -2.0855    0.7882 C.ar      1 <0>        -0.2672
     19 Br1        -3.5165   -0.5261   -0.2772 Br        1 <0>        -0.0412
     20 H1          6.4748   -3.6112   -1.1806 H         1 <0>         0.0572
     21 H2          5.6528   -2.1194   -1.7510 H         1 <0>         0.0555
     22 H3          4.7794   -3.6889   -1.7689 H         1 <0>         0.0566
     23 H4          4.8718   -3.7687    0.7176 H         1 <0>         0.0723
     24 H5          5.7452   -2.1992    0.7356 H         1 <0>         0.0711
     25 H6          2.5309   -3.8727    0.1029 H         1 <0>         0.1236
     26 H7          0.3785   -2.6875   -0.0013 H         1 <0>         0.1383
     27 H8          2.4654    1.0616    0.0325 H         1 <0>         0.1268
     28 H9          4.6056   -0.1446    0.1466 H         1 <0>         0.1211
     29 H10        -0.0395    1.0342   -0.3760 H         1 <0>         0.1766
     30 H11        -0.1003   -2.1098    1.5038 H         1 <0>         0.4046
     31 H12        -1.2301   -3.9931    2.5365 H         1 <0>         0.1391
@<TRIPOS>BOND
     1    1    2 1
     2    1   20 1
     3    1   21 1
     4    1   22 1
     5    2    3 1
     6    2   23 1
     7    2   24 1
     8    3    8 ar
     9    3    4 ar
    10    4    5 ar
    11    4   25 1
    12    5    6 ar
    13    5   26 1
    14    6    7 ar
    15    6    9 1
    16    7    8 ar
    17    7   27 1
    18    8   28 1
    19    9   10 2
    20    9   29 1
    21   10   11 1
    22   11   12 1
    23   11   30 1
    24   12   18 ar
    25   12   13 ar
    26   13   14 ar
    27   13   31 1
    28   14   15 ar
    29   15   16 ar
    30   16   17 1
    31   16   18 ar
    32   18   19 1
@<TRIPOS>MOLECULE
ZINC37962402
   29    30     0     0     0
SMALL
USER_CHARGES

@<TRIPOS>ATOM
      1 C1          0.2451    1.2210   -0.6810 C.ar      1 <0>        -0.1968
      2 C2          1.4809    1.8172   -0.8390 C.ar      1 <0>        -0.0605
      3 C3          2.6339    1.0580   -0.7446 C.ar      1 <0>        -0.1085
      4 C4          2.5525   -0.3001   -0.4918 C.ar      1 <0>        -0.0576
      5 C5          1.3195   -0.9015   -0.3326 C.ar      1 <0>        -0.1836
      6 C6          0.1605   -0.1419   -0.4268 C.ar      1 <0>         0.2521
      7 N1         -1.0885   -0.7477   -0.2661 N.pl3     1 <0>        -0.7077
      8 C7         -1.1763   -2.1853    0.0020 C.3       1 <0>         0.1053
      9 H1         -0.3753   -2.7029   -0.5258 H         1 <0>         0.0966
     10 C8         -2.5087   -2.7046   -0.4735 C.ar      1 <0>        -0.0385
     11 C9         -3.6022   -1.8602   -0.5216 C.ar      1 <0>        -0.0984
     12 C10        -4.8244   -2.3357   -0.9576 C.ar      1 <0>        -0.1033
     13 C11        -4.9541   -3.6573   -1.3467 C.ar      1 <0>        -0.0373
     14 C12        -3.8603   -4.5024   -1.2992 C.ar      1 <0>        -0.1017
     15 C13        -2.6359   -4.0246   -0.8672 C.ar      1 <0>        -0.0100
     16 Cl1        -1.2610   -5.0831   -0.8130 Cl        1 <0>        -0.0394
     17 Cl2        -6.4896   -4.2545   -1.8938 Cl        1 <0>        -0.0718
     18 C14        -1.0416   -2.4292    1.4830 C.2       1 <0>         0.4918
     19 O1         -1.0700   -1.4905    2.2605 O.co2     1 <0>        -0.6717
     20 O2         -0.9043   -3.5653    1.9038 O.co2     1 <0>        -0.6721
     21 Cl3         4.1855    1.8106   -0.9442 Cl        1 <0>        -0.0985
     22 H2         -0.6543    1.8147   -0.7507 H         1 <0>         0.1239
     23 H3          1.5473    2.8769   -1.0367 H         1 <0>         0.1248
     24 H4          3.4540   -0.8904   -0.4194 H         1 <0>         0.1257
     25 H5          1.2565   -1.9615   -0.1357 H         1 <0>         0.1284
     26 H6         -1.8974   -0.2164   -0.3321 H         1 <0>         0.3935
     27 H7         -3.5014   -0.8286   -0.2180 H         1 <0>         0.1365
     28 H8         -5.6785   -1.6757   -0.9943 H         1 <0>         0.1369
     29 H9         -3.9611   -5.5340   -1.6028 H         1 <0>         0.1416
@<TRIPOS>BOND
     1    1    6 ar
     2    1    2 ar
     3    1   22 1
     4    2    3 ar
     5    2   23 1
     6    3    4 ar
     7    3   21 1
     8    4    5 ar
     9    4   24 1
    10    5    6 ar
    11    5   25 1
    12    6    7 1
    13    7    8 1
    14    7   26 1
    15    8    9 1
    16    8   10 1
    17    8   18 1
    18   10   15 ar
    19   10   11 ar
    20   11   12 ar
    21   11   27 1
    22   12   13 ar
    23   12   28 1
    24   13   14 ar
    25   13   17 1
    26   14   15 ar
    27   14   29 1
    28   15   16 1
    29   18   19 2
    30   18   20 1
@<TRIPOS>MOLECULE
ZINC43735835
   58    61     0     0     0
SMALL
USER_CHARGES

@<TRIPOS>ATOM
      1 C1          0.2171    1.5058    0.1242 C.3       1 <0>        -0.1255
      2 C2          0.0021   -0.0041    0.0020 C.3       1 <0>        -0.1551
      3 H1         -1.0660   -0.2213    0.0164 H         1 <0>         0.0667
      4 C3          0.6058   -0.5004   -1.3133 C.3       1 <0>        -0.0563
      5 H2          1.6557   -0.2139   -1.3746 H         1 <0>         0.0616
      6 C4          0.4685   -2.0311   -1.4140 C.3       1 <0>        -0.1259
      7 C5         -0.3552   -2.3172   -2.6909 C.3       1 <0>        -0.1137
      8 C6         -0.1428   -1.0538   -3.5455 C.3       1 <0>        -0.0720
      9 H3          0.8478   -1.0930   -3.9984 H         1 <0>         0.0640
     10 C7         -0.1787    0.0890   -2.5159 C.3       1 <0>        -0.0495
     11 C8         -1.6113    0.3270   -2.0304 C.3       1 <0>        -0.1122
     12 C9         -2.5408    0.5791   -3.2134 C.3       1 <0>        -0.1153
     13 C10        -2.5698   -0.6745   -4.0963 C.3       1 <0>        -0.0634
     14 H4         -2.8772   -1.5320   -3.4976 H         1 <0>         0.0716
     15 C11        -1.1795   -0.9103   -4.6344 C.3       1 <0>        -0.0618
     16 H5         -0.9033   -0.0766   -5.2800 H         1 <0>         0.0638
     17 C12        -1.2195   -2.1890   -5.4800 C.3       1 <0>        -0.0870
     18 C13        -2.2819   -2.0557   -6.5313 C.2       1 <0>        -0.1537
     19 C14        -3.3247   -1.2912   -6.3919 C.2       1 <0>        -0.0931
     20 C15        -3.5641   -0.4655   -5.2266 C.3       1 <0>        -0.0137
     21 C16        -4.9874   -0.7409   -4.7334 C.3       1 <0>        -0.1017
     22 C17        -5.9716   -0.5334   -5.8864 C.3       1 <0>        -0.1178
     23 C18        -5.6791   -1.5371   -7.0029 C.3       1 <0>         0.1092
     24 H6         -6.4218   -1.4280   -7.7932 H         1 <0>         0.0519
     25 C19        -4.3421   -1.2457   -7.5196 C.3       1 <0>        -0.1177
     26 O1         -5.7351   -2.8645   -6.4766 O.3       1 <0>        -0.5579
     27 C20        -3.5006    1.0028   -5.6519 C.3       1 <0>        -0.1455
     28 C21         0.4704    1.3655   -3.0545 C.3       1 <0>        -0.1347
     29 C22         0.6723   -0.7020    1.1573 C.2       1 <0>         0.4981
     30 O2          0.1244   -1.6465    1.6997 O.co2     1 <0>        -0.7052
     31 O3          1.7624   -0.3221    1.5496 O.co2     1 <0>        -0.7030
     32 H7          1.2767    1.7326    0.0062 H         1 <0>         0.0516
     33 H8         -0.3526    2.0179   -0.6513 H         1 <0>         0.0431
     34 H9         -0.1196    1.8426    1.1046 H         1 <0>         0.0383
     35 H10         1.4539   -2.4899   -1.4947 H         1 <0>         0.0508
     36 H11        -0.0534   -2.4176   -0.5386 H         1 <0>         0.0828
     37 H12         0.0285   -3.1980   -3.2058 H         1 <0>         0.0554
     38 H13        -1.4101   -2.4429   -2.4471 H         1 <0>         0.0632
     39 H14        -1.9560   -0.5493   -1.4816 H         1 <0>         0.0679
     40 H15        -1.6281    1.1926   -1.3681 H         1 <0>         0.0692
     41 H16        -3.5458    0.7927   -2.8492 H         1 <0>         0.0563
     42 H17        -2.1729    1.4257   -3.7931 H         1 <0>         0.0643
     43 H18        -0.2515   -2.3395   -5.9580 H         1 <0>         0.0643
     44 H19        -1.4461   -3.0416   -4.8398 H         1 <0>         0.0761
     45 H20        -2.1759   -2.6209   -7.4455 H         1 <0>         0.0961
     46 H21        -5.0564   -1.7686   -4.3767 H         1 <0>         0.0716
     47 H22        -5.2296   -0.0562   -3.9206 H         1 <0>         0.0631
     48 H23        -6.9895   -0.6798   -5.5250 H         1 <0>         0.0639
     49 H24        -5.8677    0.4801   -6.2738 H         1 <0>         0.0764
     50 H25        -4.3222   -0.2640   -7.9929 H         1 <0>         0.0807
     51 H26        -4.1082   -2.0141   -8.2565 H         1 <0>         0.0622
     52 H27        -5.5591   -3.5546   -7.1307 H         1 <0>         0.3721
     53 H28        -2.4921    1.2397   -5.9909 H         1 <0>         0.0532
     54 H29        -4.2070    1.1769   -6.4636 H         1 <0>         0.0497
     55 H30        -3.7575    1.6381   -4.8042 H         1 <0>         0.0637
     56 H31         1.4939    1.1509   -3.3618 H         1 <0>         0.0498
     57 H32        -0.0977    1.7283   -3.9112 H         1 <0>         0.0479
     58 H33         0.4772    2.1267   -2.2744 H         1 <0>         0.0610
@<TRIPOS>BOND
     1    1    2 1
     2    1   32 1
     3    1   33 1
     4    1   34 1
     5    2    3 1
     6    2    4 1
     7    2   29 1
     8    4    5 1
     9    4   10 1
    10    4    6 1
    11    6    7 1
    12    6   35 1
    13    6   36 1
    14    7    8 1
    15    7   37 1
    16    7   38 1
    17    8    9 1
    18    8   15 1
    19    8   10 1
    20   10   11 1
    21   10   28 1
    22   11   12 1
    23   11   39 1
    24   11   40 1
    25   12   13 1
    26   12   41 1
    27   12   42 1
    28   13   14 1
    29   13   20 1
    30   13   15 1
    31   15   16 1
    32   15   17 1
    33   17   18 1
    34   17   43 1
    35   17   44 1
    36   18   19 2
    37   18   45 1
    38   19   25 1
    39   19   20 1
    40   20   21 1
    41   20   27 1
    42   21   22 1
    43   21   46 1
    44   21   47 1
    45   22   23 1
    46   22   48 1
    47   22   49 1
    48   23   24 1
    49   23   25 1
    50   23   26 1
    51   25   50 1
    52   25   51 1
    53   26   52 1
    54   27   53 1
    55   27   54 1
    56   27   55 1
    57   28   56 1
    58   28   57 1
    59   28   58 1
    60   29   30 2
    61   29   31 1
@<TRIPOS>MOLECULE
ZINC51402461
   37    38     0     0     0
SMALL
USER_CHARGES

@<TRIPOS>ATOM
      1 C1          1.8250   -1.9795    1.8976 C.3       1 <0>        -0.1073
      2 C2          0.7281   -1.6874    0.9064 C.ar      1 <0>        -0.0531
      3 C3          0.7354   -2.2945   -0.3318 C.ar      1 <0>        -0.1317
      4 C4         -0.2710   -2.0275   -1.2434 C.ar      1 <0>        -0.1200
      5 C5         -1.2921   -1.1502   -0.9208 C.ar      1 <0>        -0.1331
      6 C6         -1.3137   -0.5356    0.3130 C.ar      1 <0>        -0.0884
      7 C7         -0.3030   -0.8044    1.2418 C.ar      1 <0>        -0.0837
      8 C8         -0.3216   -0.1564    2.5642 C.2       1 <0>         0.3911
      9 O1         -0.2444   -0.9053    3.6834 O.3       1 <0>        -0.5877
     10 C9         -0.4185    1.2257    2.6589 C.2       1 <0>        -0.4158
     11 C10        -0.5561    2.0167    1.4731 C.1       1 <0>         0.2922
     12 N1         -0.6652    2.6442    0.5325 N.1       1 <0>        -0.5220
     13 C11        -0.3801    1.8752    3.9733 C.2       1 <0>         0.5916
     14 O2         -0.2632    1.2029    4.9811 O.2       1 <0>        -0.5154
     15 N2         -0.4742    3.2165    4.0652 N.am      1 <0>        -0.6873
     16 C12        -0.5366    3.8287    5.3210 C.ar      1 <0>         0.2347
     17 C13        -0.9087    3.0907    6.4375 C.ar      1 <0>        -0.1501
     18 C14        -0.9694    3.6982    7.6760 C.ar      1 <0>        -0.0653
     19 C15        -0.6602    5.0400    7.8057 C.ar      1 <0>        -0.1644
     20 C16        -0.2894    5.7774    6.6965 C.ar      1 <0>        -0.0523
     21 C17        -0.2212    5.1744    5.4556 C.ar      1 <0>        -0.2458
     22 C18         0.1889    5.9775    4.2482 C.3       1 <0>         0.5088
     23 F1          0.4543    7.2960    4.6332 F         1 <0>        -0.1795
     24 F2          1.3392    5.4161    3.6835 F         1 <0>        -0.1745
     25 F3         -0.8460    5.9659    3.3069 F         1 <0>        -0.1797
     26 H1          1.5002   -2.7674    2.5772 H         1 <0>         0.0759
     27 H2          2.7187   -2.3047    1.3651 H         1 <0>         0.0542
     28 H3          2.0494   -1.0778    2.4674 H         1 <0>         0.0718
     29 H4          1.5288   -2.9799   -0.5909 H         1 <0>         0.1186
     30 H5         -0.2596   -2.5059   -2.2116 H         1 <0>         0.1159
     31 H6         -2.0736   -0.9464   -1.6378 H         1 <0>         0.1171
     32 H7         -2.1109    0.1486    0.5632 H         1 <0>         0.1201
     33 H8         -0.4987    3.7573    3.2603 H         1 <0>         0.4025
     34 H9         -1.1506    2.0429    6.3368 H         1 <0>         0.1728
     35 H10        -1.2589    3.1250    8.5444 H         1 <0>         0.1298
     36 H11        -0.7087    5.5128    8.7755 H         1 <0>         0.1269
     37 H12        -0.0486    6.8250    6.8011 H         1 <0>         0.1330
@<TRIPOS>BOND
     1    1    2 1
     2    1   26 1
     3    1   27 1
     4    1   28 1
     5    2    7 ar
     6    2    3 ar
     7    3    4 ar
     8    3   29 1
     9    4    5 ar
    10    4   30 1
    11    5    6 ar
    12    5   31 1
    13    6    7 ar
    14    6   32 1
    15    7    8 1
    16    8    9 1
    17    8   10 2
    18   10   11 1
    19   10   13 1
    20   11   12 3
    21   13   14 2
    22   13   15 am
    23   15   16 1
    24   15   33 1
    25   16   21 ar
    26   16   17 ar
    27   17   18 ar
    28   17   34 1
    29   18   19 ar
    30   18   35 1
    31   19   20 ar
    32   19   36 1
    33   20   21 ar
    34   20   37 1
    35   21   22 1
    36   22   23 1
    37   22   24 1
    38   22   25 1
@<TRIPOS>MOLECULE
ZINC05556969
   32    34     0     0     0
SMALL
USER_CHARGES

@<TRIPOS>ATOM
      1 C1          0.1918    1.2034   -1.6933 C.ar      1 <0>        -0.1728
      2 C2          0.2757    0.0860   -0.8830 C.ar      1 <0>        -0.1064
      3 C3          1.4560   -0.6272   -0.8075 C.ar      1 <0>        -0.1575
      4 C4          2.5596   -0.2208   -1.5468 C.ar      1 <0>         0.1612
      5 C5          2.4719    0.9021   -2.3598 C.ar      1 <0>        -0.1434
      6 C6          1.2886    1.6107   -2.4306 C.ar      1 <0>        -0.1103
      7 N1          3.7560   -0.9402   -1.4724 N.2       1 <0>        -0.5691
      8 C7          3.7483   -2.2402   -1.0371 C.2       1 <0>         0.4364
      9 N2          2.7229   -3.0731   -0.9552 N.2       1 <0>        -0.7071
     10 C8          2.8489   -4.3061   -0.5166 C.2       1 <0>         0.5289
     11 O1          1.8955   -5.0651   -0.4461 O.2       1 <0>        -0.5365
     12 C9          4.2118   -4.7238   -0.1131 C.2       1 <0>        -0.1728
     13 C10         4.6488   -5.9142    0.3713 C.2       1 <0>        -0.0274
     14 C11         6.0858   -6.1479    0.5570 C.ar      1 <0>        -0.0728
     15 C12         7.0216   -5.3091   -0.0601 C.ar      1 <0>        -0.0682
     16 C13         8.3692   -5.5350    0.1197 C.ar      1 <0>        -0.0943
     17 C14         8.8028   -6.5895    0.9087 C.ar      1 <0>        -0.0769
     18 C15         7.8903   -7.4250    1.5236 C.ar      1 <0>        -0.1425
     19 C16         6.5311   -7.2111    1.3599 C.ar      1 <0>         0.1356
     20 O2          5.6343   -8.0284    1.9678 O.3       1 <0>        -0.4893
     21 Br1         9.6328   -4.4018   -0.7140 Br        1 <0>        -0.0468
     22 S1          5.1209   -3.2211   -0.4509 S.3       1 <0>        -0.1176
     23 H1         -0.7337    1.7567   -1.7540 H         1 <0>         0.1065
     24 H2         -0.5826   -0.2292   -0.3082 H         1 <0>         0.1073
     25 H3          1.5209   -1.4996   -0.1742 H         1 <0>         0.1329
     26 H4          3.3282    1.2208   -2.9355 H         1 <0>         0.1142
     27 H5          1.2197    2.4836   -3.0627 H         1 <0>         0.1106
     28 H6          3.9391   -6.6893    0.6199 H         1 <0>         0.1512
     29 H7          6.6882   -4.4870   -0.6760 H         1 <0>         0.1585
     30 H8          9.8608   -6.7591    1.0433 H         1 <0>         0.1360
     31 H9          8.2371   -8.2441    2.1361 H         1 <0>         0.1386
     32 H10         5.3796   -8.7962    1.4379 H         1 <0>         0.3936
@<TRIPOS>BOND
     1    1    6 ar
     2    1    2 ar
     3    1   23 1
     4    2    3 ar
     5    2   24 1
     6    3    4 ar
     7    3   25 1
     8    4    5 ar
     9    4    7 1
    10    5    6 ar
    11    5   26 1
    12    6   27 1
    13    7    8 1
    14    8   22 1
    15    8    9 2
    16    9   10 1
    17   10   11 2
    18   10   12 1
    19   12   13 2
    20   12   22 1
    21   13   14 1
    22   13   28 1
    23   14   19 ar
    24   14   15 ar
    25   15   16 ar
    26   15   29 1
    27   16   17 ar
    28   16   21 1
    29   17   18 ar
    30   17   30 1
    31   18   19 ar
    32   18   31 1
    33   19   20 1
    34   20   32 1
@<TRIPOS>MOLECULE
ZINC66004733
   40    42     0     0     0
SMALL
USER_CHARGES

@<TRIPOS>ATOM
      1 C1         -2.5238   -0.9232   -0.7870 C.3       1 <0>        -0.0930
      2 C2         -1.0896   -1.0536   -0.3429 C.2       1 <0>         0.0995
      3 C3         -0.0002   -0.8757   -1.1450 C.2       1 <0>        -0.2009
      4 C4          1.1843   -1.1005   -0.2965 C.ar      1 <0>        -0.0720
      5 C5          2.5579   -1.0671   -0.5243 C.ar      1 <0>        -0.0638
      6 C6          3.4275   -1.3327    0.5107 C.ar      1 <0>        -0.1498
      7 C7          2.9404   -1.6327    1.7747 C.ar      1 <0>        -0.1059
      8 C8          1.5841   -1.6696    2.0139 C.ar      1 <0>        -0.1336
      9 C9          0.6898   -1.4035    0.9821 C.ar      1 <0>         0.0916
     10 N1         -0.6876   -1.3594    0.9144 N.pl3     1 <0>        -0.5876
     11 H1         -1.2840   -1.5265    1.6608 H         1 <0>         0.4107
     12 C10        -0.0065   -0.5293   -2.5733 C.2       1 <0>         0.4871
     13 C11         0.1167    0.8761   -2.9897 C.2       1 <0>        -0.4039
     14 C12         0.3572    1.8942   -2.0118 C.1       1 <0>         0.3056
     15 N2          0.5481    2.7019   -1.2361 N.1       1 <0>        -0.5284
     16 C13         0.0018    1.2095   -4.3070 C.2       1 <0>         0.3519
     17 O1         -0.2239    0.2539   -5.2248 O.3       1 <0>        -0.5928
     18 C14         0.1280    2.6493   -4.7336 C.3       1 <0>        -0.1226
     19 S1          1.7427    2.9080   -5.5188 S.3       1 <0>        -0.0414
     20 C15         1.7360    4.6151   -5.9550 C.ar      1 <0>        -0.0673
     21 C16         0.6309    5.4043   -5.6599 C.ar      1 <0>        -0.1202
     22 C17         0.6268    6.7423   -6.0024 C.ar      1 <0>        -0.1000
     23 C18         1.7226    7.2987   -6.6397 C.ar      1 <0>         0.0459
     24 C19         2.8269    6.5141   -6.9362 C.ar      1 <0>         0.0890
     25 C20         2.8375    5.1752   -6.5893 C.ar      1 <0>        -0.1153
     26 F1          3.8950    7.0590   -7.5586 F         1 <0>        -0.1283
     27 F2          1.7159    8.6078   -6.9736 F         1 <0>        -0.1327
     28 O2         -0.1136   -1.4058   -3.4120 O.2       1 <0>        -0.4693
     29 H2         -2.8795    0.0851   -0.5751 H         1 <0>         0.0771
     30 H3         -2.5914   -1.1147   -1.8579 H         1 <0>         0.0906
     31 H4         -3.1378   -1.6456   -0.2492 H         1 <0>         0.0666
     32 H5          2.9395   -0.8345   -1.5075 H         1 <0>         0.1235
     33 H6          4.4932   -1.3076    0.3373 H         1 <0>         0.1204
     34 H7          3.6311   -1.8397    2.5788 H         1 <0>         0.1206
     35 H8          1.2156   -1.9050    3.0014 H         1 <0>         0.1149
     36 H9         -0.6637    2.8886   -5.4435 H         1 <0>         0.1019
     37 H10         0.0408    3.2960   -3.8605 H         1 <0>         0.0931
     38 H11        -0.2247    4.9713   -5.1630 H         1 <0>         0.1410
     39 H12        -0.2324    7.3551   -5.7731 H         1 <0>         0.1470
     40 H13         3.6994    4.5649   -6.8154 H         1 <0>         0.1508
@<TRIPOS>BOND
     1    1    2 1
     2    1   29 1
     3    1   30 1
     4    1   31 1
     5    2   10 1
     6    2    3 2
     7    3    4 1
     8    3   12 1
     9    4    9 ar
    10    4    5 ar
    11    5    6 ar
    12    5   32 1
    13    6    7 ar
    14    6   33 1
    15    7    8 ar
    16    7   34 1
    17    8    9 ar
    18    8   35 1
    19    9   10 1
    20   10   11 1
    21   12   13 1
    22   12   28 2
    23   13   14 1
    24   13   16 2
    25   14   15 3
    26   16   17 1
    27   16   18 1
    28   18   19 1
    29   18   36 1
    30   18   37 1
    31   19   20 1
    32   20   25 ar
    33   20   21 ar
    34   21   22 ar
    35   21   38 1
    36   22   23 ar
    37   22   39 1
    38   23   24 ar
    39   23   27 1
    40   24   25 ar
    41   24   26 1
    42   25   40 1
@<TRIPOS>MOLECULE
ZINC01824691
   38    41     0     0     0
SMALL
USER_CHARGES
2-[(E)-(fluoren-9-ylidenehydrazono)methyl]-4-nitro-phenol
@<TRIPOS>ATOM
      1 C1          1.0134    1.8791   -1.7430 C.ar      1 <0>        -0.1159
      2 C2         -0.1613    1.1633   -1.5833 C.ar      1 <0>        -0.1238
      3 C3         -1.3160    1.7998   -1.1741 C.ar      1 <0>        -0.0637
      4 C4         -1.2982    3.1680   -0.9099 C.ar      1 <0>        -0.0903
      5 C5         -0.1056    3.8961   -1.0718 C.ar      1 <0>        -0.0603
      6 C6          1.0474    3.2366   -1.4906 C.ar      1 <0>        -0.1098
      7 C7         -0.3677    5.3123   -0.7327 C.ar      1 <0>        -0.0339
      8 C8          0.4554    6.4357   -0.7248 C.ar      1 <0>        -0.1009
      9 C9         -0.0570    7.6646   -0.3574 C.ar      1 <0>        -0.1129
     10 C10        -1.3878    7.7921    0.0043 C.ar      1 <0>        -0.1243
     11 C11        -2.2198    6.6903    0.0024 C.ar      1 <0>        -0.0750
     12 C12        -1.7192    5.4428   -0.3651 C.ar      1 <0>        -0.0465
     13 C13        -2.3457    4.1088   -0.4634 C.2       1 <0>         0.1987
     14 N1         -3.6022    3.8138   -0.2023 N.2       1 <0>        -0.3078
     15 N2         -4.0359    2.6138   -0.3922 N.2       1 <0>        -0.3577
     16 C14        -5.3168    2.3514   -0.2694 C.2       1 <0>         0.2445
     17 C15        -5.7769    0.9618   -0.2025 C.ar      1 <0>        -0.2270
     18 C16        -7.1480    0.6722   -0.1904 C.ar      1 <0>         0.0391
     19 C17        -7.5718   -0.6362   -0.1274 C.ar      1 <0>        -0.1741
     20 C18        -6.6491   -1.6696   -0.0764 C.ar      1 <0>        -0.0128
     21 C19        -5.2942   -1.4003   -0.0881 C.ar      1 <0>        -0.2325
     22 C20        -4.8458   -0.0908   -0.1560 C.ar      1 <0>         0.3277
     23 N3         -9.0203   -0.9411   -0.1146 N.pl3     1 <0>         0.0652
     24 O1         -9.8337   -0.0357   -0.1597 O.2       1 <0>        -0.2200
     25 O2         -9.3987   -2.0975   -0.0590 O.3       1 <0>        -0.2173
     26 H1          1.9099    1.3720   -2.0679 H         1 <0>         0.1206
     27 H2         -0.1752    0.1022   -1.7842 H         1 <0>         0.1237
     28 H3         -2.2306    1.2377   -1.0554 H         1 <0>         0.1894
     29 H4          1.9681    3.7866   -1.6175 H         1 <0>         0.1184
     30 H5          1.4944    6.3460   -1.0056 H         1 <0>         0.1243
     31 H6          0.5851    8.5330   -0.3525 H         1 <0>         0.1251
     32 H7         -1.7766    8.7584    0.2896 H         1 <0>         0.1264
     33 H8         -3.2569    6.7952    0.2850 H         1 <0>         0.1286
     34 H9         -6.0311    3.1598   -0.2176 H         1 <0>         0.0957
     35 H10        -7.8707    1.4738   -0.2300 H         1 <0>         0.1329
     36 H11        -6.9920   -2.6925   -0.0275 H         1 <0>         0.1282
     37 H12        -4.5830   -2.2121   -0.0483 H         1 <0>         0.1261
     38 O3         -3.5155    0.1744   -0.1727 O.3       1 <0>        -0.6083
@<TRIPOS>BOND
     1    1    6 ar
     2    1    2 ar
     3    1   26 1
     4    2    3 ar
     5    2   27 1
     6    3    4 ar
     7    3   28 1
     8    4   13 1
     9    4    5 ar
    10    5    6 ar
    11    5    7 1
    12    6   29 1
    13    7   12 ar
    14    7    8 ar
    15    8    9 ar
    16    8   30 1
    17    9   10 ar
    18    9   31 1
    19   10   11 ar
    20   10   32 1
    21   11   12 ar
    22   11   33 1
    23   12   13 1
    24   13   14 2
    25   14   15 1
    26   15   16 2
    27   16   17 1
    28   16   34 1
    29   17   22 ar
    30   17   18 ar
    31   18   19 ar
    32   18   35 1
    33   19   20 ar
    34   19   23 1
    35   20   21 ar
    36   20   36 1
    37   21   22 ar
    38   21   37 1
    39   22   38 1
    40   23   24 2
    41   23   25 1
@<TRIPOS>MOLECULE
ZINC27516946
   46    50     0     0     0
SMALL
USER_CHARGES
(4-ethoxyphenyl)-methyl-BLAHone
@<TRIPOS>ATOM
      1 C1          2.2308    9.5642    0.0258 C.3       1 <0>        -0.1536
      2 C2          1.6422    8.1519    0.0252 C.3       1 <0>         0.0511
      3 O1          2.7025    7.1940    0.0108 O.3       1 <0>        -0.3168
      4 C3          2.3487    5.8823    0.0084 C.ar      1 <0>         0.1345
      5 C4          3.3299    4.9001   -0.0054 C.ar      1 <0>        -0.1560
      6 C5          2.9738    3.5679   -0.0079 C.ar      1 <0>        -0.0459
      7 C6          1.6273    3.2078    0.0029 C.ar      1 <0>        -0.0343
      8 C7          0.6445    4.1961    0.0109 C.ar      1 <0>        -0.0364
      9 C8          1.0067    5.5267    0.0192 C.ar      1 <0>        -0.2144
     10 C9          1.2410    1.7755   -0.0003 C.2       1 <0>         0.2646
     11 N1         -0.0158    1.3114    0.0093 N.2       1 <0>        -0.5544
     12 C10         0.0021   -0.0041    0.0020 C.2       1 <0>         0.3752
     13 C11        -1.0774   -1.0209    0.0071 C.2       1 <0>        -0.2706
     14 C12        -2.5253   -0.8156    0.0206 C.2       1 <0>        -0.0136
     15 C13        -3.3001   -1.9215    0.0228 C.2       1 <0>        -0.2304
     16 S1         -2.1570   -3.2760    0.0070 S.3       1 <0>         0.0623
     17 C14        -0.6466   -2.3453   -0.0027 C.2       1 <0>         0.1906
     18 N2          0.6822   -2.6712   -0.0168 N.2       1 <0>        -0.5939
     19 C15         1.6302   -1.7138   -0.0220 C.2       1 <0>         0.6638
     20 O2          2.8029   -2.0356   -0.0351 O.3       1 <0>        -0.5549
     21 N3          1.3048   -0.4109   -0.0124 N.pl3     1 <0>        -0.3736
     22 N4          2.0787    0.7608   -0.0136 N.2       1 <0>        -0.3086
     23 C16        -4.7966   -1.9826    0.0349 C.3       1 <0>        -0.0144
     24 C17        -5.3402   -0.5935   -0.3299 C.3       1 <0>        -0.0858
     25 H1         -5.1844   -0.3946   -1.4005 H         1 <0>         0.0734
     26 C18        -4.6032    0.4571    0.5058 C.3       1 <0>        -0.1116
     27 C19        -3.1537    0.5750    0.0331 C.3       1 <0>        -0.0597
     28 C20        -6.8392   -0.5339   -0.0295 C.3       1 <0>        -0.1462
     29 H2          1.4146   10.3016    0.0369 H         1 <0>         0.0776
     30 H3          2.8419    9.7071   -0.8776 H         1 <0>         0.0660
     31 H4          2.8591    9.6992    0.9186 H         1 <0>         0.0660
     32 H5          1.0311    8.0090    0.9286 H         1 <0>         0.0631
     33 H6          1.0139    8.0169   -0.8675 H         1 <0>         0.0631
     34 H7          4.3731    5.1796   -0.0138 H         1 <0>         0.1334
     35 H8          3.7375    2.8043   -0.0186 H         1 <0>         0.1394
     36 H9         -0.3996    3.9201    0.0152 H         1 <0>         0.1389
     37 H10         0.2456    6.2929    0.0299 H         1 <0>         0.1300
     38 H11        -5.1391   -2.7261   -0.6999 H         1 <0>         0.0703
     39 H12        -5.1437   -2.2715    1.0379 H         1 <0>         0.0713
     40 H13        -5.1019    1.4311    0.3931 H         1 <0>         0.0620
     41 H14        -4.6164    0.1588    1.5645 H         1 <0>         0.0628
     42 H15        -2.5903    1.2258    0.7179 H         1 <0>         0.0822
     43 H16        -3.1260    0.9990   -0.9815 H         1 <0>         0.0719
     44 H17        -7.2263    0.4618   -0.2915 H         1 <0>         0.0539
     45 H18        -7.0063   -0.7222    1.0413 H         1 <0>         0.0543
     46 H19        -7.3626   -1.2985   -0.6223 H         1 <0>         0.0538
@<TRIPOS>BOND
     1    1    2 1
     2    1   29 1
     3    1   30 1
     4    1   31 1
     5    2    3 1
     6    2   32 1
     7    2   33 1
     8    3    4 1
     9    4    9 ar
    10    4    5 ar
    11    5    6 ar
    12    5   34 1
    13    6    7 ar
    14    6   35 1
    15    7    8 ar
    16    7   10 1
    17    8    9 ar
    18    8   36 1
    19    9   37 1
    20   10   22 2
    21   10   11 1
    22   11   12 2
    23   12   21 1
    24   12   13 1
    25   13   17 2
    26   13   14 1
    27   14   27 1
    28   14   15 2
    29   15   16 1
    30   15   23 1
    31   16   17 1
    32   17   18 1
    33   18   19 2
    34   19   20 1
    35   19   21 1
    36   21   22 1
    37   23   24 1
    38   23   38 1
    39   23   39 1
    40   24   25 1
    41   24   26 1
    42   24   28 1
    43   26   27 1
    44   26   40 1
    45   26   41 1
    46   27   42 1
    47   27   43 1
    48   28   44 1
    49   28   45 1
    50   28   46 1
@<TRIPOS>MOLECULE
ZINC39870631
   40    41     0     0     0
SMALL
USER_CHARGES

@<TRIPOS>ATOM
      1 C1         -0.0184    1.5028    0.0103 C.3       1 <0>        -0.1259
      2 C2          0.0021   -0.0041    0.0020 C.2       1 <0>         0.1633
      3 C3          0.0060   -0.7049   -1.2004 C.2       1 <0>        -0.2766
      4 C4          0.0253   -2.1230   -1.1781 C.2       1 <0>         0.5742
      5 O1          0.0293   -2.7447   -2.2262 O.2       1 <0>        -0.5578
      6 N1          0.0397   -2.7861   -0.0077 N.am      1 <0>        -0.5287
      7 C5          0.0358   -2.1229    1.1748 C.2       1 <0>         0.4889
      8 C6          0.0233   -0.7245    1.2076 C.2       1 <0>        -0.1552
      9 N2          0.0257   -0.0663    2.4000 N.2       1 <0>        -0.1544
     10 N3          0.0453   -0.7325    3.5045 N.2       1 <0>        -0.2738
     11 C7          0.0477   -0.0718    4.7016 C.ar      1 <0>         0.1276
     12 C8          0.0233    1.3251    4.7325 C.ar      1 <0>        -0.1382
     13 C9          0.0259    1.9855    5.9430 C.ar      1 <0>        -0.0987
     14 C10         0.0527    1.2691    7.1269 C.ar      1 <0>        -0.1279
     15 C11         0.0774   -0.1149    7.1060 C.ar      1 <0>        -0.0239
     16 C12         0.0688   -0.7904    5.9005 C.ar      1 <0>        -0.0181
     17 Cl1         0.0915   -2.5261    5.8749 Cl        1 <0>        -0.0289
     18 Cl2         0.1115   -1.0034    8.5970 Cl        1 <0>        -0.0626
     19 O2          0.0497   -2.8174    2.3294 O.3       1 <0>        -0.5567
     20 C13         0.0596   -4.2510   -0.0110 C.3       1 <0>         0.1106
     21 C14         1.5088   -4.7414   -0.0189 C.3       1 <0>        -0.1064
     22 C15         2.1934   -4.3302    1.2862 C.3       1 <0>        -0.1342
     23 C16         1.5307   -6.2658   -0.1480 C.3       1 <0>        -0.1395
     24 C17        -0.0098   -0.0014   -2.4475 C.1       1 <0>         0.3115
     25 N4         -0.0223    0.5567   -3.4369 N.1       1 <0>        -0.4762
     26 H1          1.0042    1.8801    0.0026 H         1 <0>         0.0852
     27 H2         -0.5455    1.8639   -0.8728 H         1 <0>         0.0680
     28 H3         -0.5286    1.8543    0.9071 H         1 <0>         0.0857
     29 H4          0.0027    1.8864    3.8101 H         1 <0>         0.1410
     30 H5          0.0074    3.0651    5.9673 H         1 <0>         0.1304
     31 H6          0.0546    1.7923    8.0717 H         1 <0>         0.1337
     32 H7         -0.4451   -4.6232    0.8805 H         1 <0>         0.0919
     33 H8         -0.4534   -4.6193   -0.8994 H         1 <0>         0.0837
     34 H9          2.0380   -4.2977   -0.8622 H         1 <0>         0.0686
     35 H10         3.2259   -4.6796    1.2806 H         1 <0>         0.0385
     36 H11         2.1778   -3.2442    1.3782 H         1 <0>         0.0565
     37 H12         1.6643   -4.7740    2.1295 H         1 <0>         0.0624
     38 H13         1.0430   -6.5587   -1.0777 H         1 <0>         0.0533
     39 H14         2.5632   -6.6151   -0.1536 H         1 <0>         0.0534
     40 H15         1.0016   -6.7095    0.6953 H         1 <0>         0.0551
@<TRIPOS>BOND
     1    1    2 1
     2    1   26 1
     3    1   27 1
     4    1   28 1
     5    2    8 1
     6    2    3 2
     7    3    4 1
     8    3   24 1
     9    4    5 2
    10    4    6 am
    11    6    7 1
    12    6   20 1
    13    7    8 2
    14    7   19 1
    15    8    9 1
    16    9   10 2
    17   10   11 1
    18   11   16 ar
    19   11   12 ar
    20   12   13 ar
    21   12   29 1
    22   13   14 ar
    23   13   30 1
    24   14   15 ar
    25   14   31 1
    26   15   16 ar
    27   15   18 1
    28   16   17 1
    29   20   21 1
    30   20   32 1
    31   20   33 1
    32   21   22 1
    33   21   23 1
    34   21   34 1
    35   22   35 1
    36   22   36 1
    37   22   37 1
    38   23   38 1
    39   23   39 1
    40   23   40 1
    41   24   25 3
@<TRIPOS>MOLECULE
ZINC39871538
   47    49     0     0     0
SMALL
USER_CHARGES

@<TRIPOS>ATOM
      1 C1         -0.0187    1.5258    0.0104 C.3       1 <0>        -0.1460
      2 C2          0.0021   -0.0041    0.0020 C.3       1 <0>        -0.0795
      3 C3          0.7074   -0.4901   -1.2379 C.ar      1 <0>        -0.1056
      4 C4         -0.0145   -0.7176   -2.3963 C.ar      1 <0>        -0.1140
      5 C5          0.6244   -1.1620   -3.5350 C.ar      1 <0>        -0.0907
      6 C6          2.0040   -1.3824   -3.5169 C.ar      1 <0>         0.0967
      7 C7          2.7264   -1.1505   -2.3436 C.ar      1 <0>        -0.1417
      8 C8          2.0749   -0.7012   -1.2141 C.ar      1 <0>        -0.1136
      9 N1          2.6441   -1.8235   -4.6421 N.2       1 <0>        -0.2707
     10 N2          3.9180   -2.0260   -4.6220 N.2       1 <0>        -0.1639
     11 C9          4.5553   -2.4652   -5.7424 C.2       1 <0>        -0.1615
     12 C10         5.9414   -2.6928   -5.7245 C.2       1 <0>         0.1627
     13 C11         6.5642   -3.1415   -6.8853 C.2       1 <0>        -0.2841
     14 C12         5.7871   -3.3566   -8.0523 C.2       1 <0>         0.5753
     15 O1          6.3242   -3.7494   -9.0732 O.2       1 <0>        -0.5592
     16 N3          4.4611   -3.1304   -8.0395 N.am      1 <0>        -0.5252
     17 C13         3.8336   -2.6983   -6.9179 C.2       1 <0>         0.4930
     18 O2          2.5032   -2.4863   -6.9373 O.3       1 <0>        -0.5781
     19 C14         3.6802   -3.3605   -9.2574 C.3       1 <0>         0.1440
     20 C15         3.1868   -4.7843   -9.2763 C.ar      1 <0>        -0.1014
     21 C16         3.9580   -5.7754   -9.8542 C.ar      1 <0>        -0.0952
     22 C17         3.5054   -7.0815   -9.8715 C.ar      1 <0>        -0.1330
     23 C18         2.2819   -7.3965   -9.3106 C.ar      1 <0>        -0.1205
     24 C19         1.5111   -6.4056   -8.7319 C.ar      1 <0>        -0.1318
     25 C20         1.9656   -5.1002   -8.7108 C.ar      1 <0>        -0.0879
     26 C21         7.9756   -3.3831   -6.9017 C.1       1 <0>         0.3137
     27 N4          9.0952   -3.5747   -6.9146 N.1       1 <0>        -0.4800
     28 C22         6.7407   -2.4548   -4.4693 C.3       1 <0>        -0.1248
     29 H1          1.0039    1.9031    0.0027 H         1 <0>         0.0544
     30 H2         -0.5459    1.8868   -0.8726 H         1 <0>         0.0550
     31 H3         -0.5289    1.8773    0.9072 H         1 <0>         0.0523
     32 H4          0.5293   -0.3651    0.8851 H         1 <0>         0.0661
     33 H5         -1.0205   -0.3814    0.0098 H         1 <0>         0.0667
     34 H6         -1.0809   -0.5471   -2.4087 H         1 <0>         0.1181
     35 H7          0.0596   -1.3395   -4.4382 H         1 <0>         0.1271
     36 H8          3.7930   -1.3188   -2.3225 H         1 <0>         0.1272
     37 H9          2.6327   -0.5173   -0.3077 H         1 <0>         0.1129
     38 H10         2.8285   -2.6806   -9.2769 H         1 <0>         0.0999
     39 H11         4.3077   -3.1818  -10.1306 H         1 <0>         0.0945
     40 H12         4.9139   -5.5293  -10.2924 H         1 <0>         0.1284
     41 H13         4.1076   -7.8557  -10.3236 H         1 <0>         0.1173
     42 H14         1.9280   -8.4168   -9.3247 H         1 <0>         0.1155
     43 H15         0.5551   -6.6516   -8.2940 H         1 <0>         0.1177
     44 H16         1.3651   -4.3267   -8.2554 H         1 <0>         0.1335
     45 H17         6.7699   -3.3700   -3.8781 H         1 <0>         0.0838
     46 H18         7.7562   -2.1616   -4.7354 H         1 <0>         0.0672
     47 H19         6.2741   -1.6605   -3.8866 H         1 <0>         0.0854
@<TRIPOS>BOND
     1    1    2 1
     2    1   29 1
     3    1   30 1
     4    1   31 1
     5    2    3 1
     6    2   32 1
     7    2   33 1
     8    3    8 ar
     9    3    4 ar
    10    4    5 ar
    11    4   34 1
    12    5    6 ar
    13    5   35 1
    14    6    7 ar
    15    6    9 1
    16    7    8 ar
    17    7   36 1
    18    8   37 1
    19    9   10 2
    20   10   11 1
    21   11   17 2
    22   11   12 1
    23   12   13 2
    24   12   28 1
    25   13   14 1
    26   13   26 1
    27   14   15 2
    28   14   16 am
    29   16   17 1
    30   16   19 1
    31   17   18 1
    32   19   20 1
    33   19   38 1
    34   19   39 1
    35   20   25 ar
    36   20   21 ar
    37   21   22 ar
    38   21   40 1
    39   22   23 ar
    40   22   41 1
    41   23   24 ar
    42   23   42 1
    43   24   25 ar
    44   24   43 1
    45   25   44 1
    46   26   27 3
    47   28   45 1
    48   28   46 1
    49   28   47 1
@<TRIPOS>MOLECULE
ZINC17145939
   41    45     0     0     0
SMALL
USER_CHARGES

@<TRIPOS>ATOM
      1 C1         -0.1488    1.2690   -0.1671 C.ar      1 <0>        -0.0994
      2 C2          1.0023    2.0395   -0.2310 C.ar      1 <0>        -0.1265
      3 C3          2.2464    1.4401   -0.2207 C.ar      1 <0>        -0.0692
      4 C4          2.3405    0.0537   -0.1460 C.ar      1 <0>        -0.1492
      5 C5          1.1717   -0.7365   -0.0832 C.ar      1 <0>        -0.0329
      6 C6         -0.0753   -0.1065   -0.0936 C.ar      1 <0>        -0.0823
      7 C7          1.2694   -2.1983   -0.0109 C.2       1 <0>         0.3408
      8 C8          2.4544   -2.8147    0.2527 C.2       1 <0>        -0.1756
      9 C9          3.6595   -1.9965    0.4715 C.2       1 <0>         0.2426
     10 N1          4.6888   -2.4468    1.1600 N.2       1 <0>        -0.4988
     11 C10         5.7197   -1.6235    1.4498 C.ar      1 <0>         0.1474
     12 C11         5.4898   -0.4152    2.1252 C.ar      1 <0>        -0.1599
     13 C12         6.5470    0.4180    2.4171 C.ar      1 <0>        -0.0822
     14 C13         7.8345    0.0671    2.0458 C.ar      1 <0>        -0.1428
     15 C14         8.0723   -1.1240    1.3779 C.ar      1 <0>        -0.0097
     16 C15         7.0273   -1.9738    1.0826 C.ar      1 <0>        -0.1191
     17 Cl1         9.6910   -1.5502    0.9178 Cl        1 <0>        -0.0797
     18 C16         3.6518   -0.6277   -0.1288 C.2       1 <0>         0.4094
     19 O1          4.6578   -0.1094   -0.5745 O.2       1 <0>        -0.4196
     20 N2          2.5267   -4.2126    0.3155 N.pl3     1 <0>        -0.2363
     21 C17         3.2371   -5.0396   -0.5248 C.ar      1 <0>         0.0900
     22 C18         4.0567   -4.8245   -1.6270 C.ar      1 <0>        -0.0983
     23 C19         4.6321   -5.8883   -2.2638 C.ar      1 <0>        -0.0945
     24 C20         4.4053   -7.1849   -1.8200 C.ar      1 <0>        -0.1454
     25 C21         3.6052   -7.4229   -0.7410 C.ar      1 <0>        -0.0451
     26 C22         3.0036   -6.3496   -0.0700 C.ar      1 <0>        -0.0221
     27 N3          2.1848   -6.2723    0.9975 N.2       1 <0>        -0.2615
     28 N4          1.8942   -5.0450    1.2510 N.2       1 <0>         0.0038
     29 O2          0.1573   -2.9506   -0.2101 O.3       1 <0>        -0.6206
     30 H1         -1.1147    1.7521   -0.1705 H         1 <0>         0.1284
     31 H2          0.9254    3.1152   -0.2895 H         1 <0>         0.1285
     32 H3          3.1407    2.0435   -0.2707 H         1 <0>         0.1327
     33 H4         -0.9795   -0.6951   -0.0446 H         1 <0>         0.1416
     34 H5          4.4867   -0.1392    2.4151 H         1 <0>         0.1197
     35 H6          6.3714    1.3482    2.9369 H         1 <0>         0.1279
     36 H7          8.6583    0.7258    2.2779 H         1 <0>         0.1278
     37 H8          7.2144   -2.9037    0.5661 H         1 <0>         0.1323
     38 H9          4.2380   -3.8198   -1.9792 H         1 <0>         0.1191
     39 H10         5.2686   -5.7193   -3.1199 H         1 <0>         0.1257
     40 H11         4.8672   -8.0140   -2.3353 H         1 <0>         0.1254
     41 H12         3.4357   -8.4352   -0.4051 H         1 <0>         0.1274
@<TRIPOS>BOND
     1    1    6 ar
     2    1    2 ar
     3    1   30 1
     4    2    3 ar
     5    2   31 1
     6    3    4 ar
     7    3   32 1
     8    4   18 1
     9    4    5 ar
    10    5    6 ar
    11    5    7 1
    12    6   33 1
    13    7    8 2
    14    7   29 1
    15    8    9 1
    16    8   20 1
    17    9   10 2
    18    9   18 1
    19   10   11 1
    20   11   16 ar
    21   11   12 ar
    22   12   13 ar
    23   12   34 1
    24   13   14 ar
    25   13   35 1
    26   14   15 ar
    27   14   36 1
    28   15   16 ar
    29   15   17 1
    30   16   37 1
    31   18   19 2
    32   20   28 1
    33   20   21 1
    34   21   26 ar
    35   21   22 ar
    36   22   23 ar
    37   22   38 1
    38   23   24 ar
    39   23   39 1
    40   24   25 ar
    41   24   40 1
    42   25   26 ar
    43   25   41 1
    44   26   27 1
    45   27   28 2
@<TRIPOS>MOLECULE
ZINC02386624
   49    52     0     0     0
SMALL
USER_CHARGES
3-(9H-fluoren-9-ylmethoxycarbonylamino)cyclohexane-1-carboxylic acid
@<TRIPOS>ATOM
      1 C1          5.6325   -1.9448   -5.0037 C.ar      1 <0>        -0.1188
      2 C2          4.2919   -2.0299   -4.6731 C.ar      1 <0>        -0.1123
      3 C3          3.4546   -0.9498   -4.8880 C.ar      1 <0>        -0.0860
      4 C4          3.9534    0.2130   -5.4335 C.ar      1 <0>        -0.0814
      5 C5          5.3024    0.3091   -5.7693 C.ar      1 <0>        -0.0615
      6 C6          6.1416   -0.7848   -5.5491 C.ar      1 <0>        -0.0979
      7 C7          5.5774    1.6544   -6.3319 C.ar      1 <0>        -0.0476
      8 C8          6.7575    2.2282   -6.8089 C.ar      1 <0>        -0.0980
      9 C9          6.7499    3.5211   -7.2891 C.ar      1 <0>        -0.1154
     10 C10         5.5763    4.2534   -7.3008 C.ar      1 <0>        -0.1135
     11 C11         4.4032    3.6914   -6.8297 C.ar      1 <0>        -0.0941
     12 C12         4.4017    2.3995   -6.3475 C.ar      1 <0>        -0.0867
     13 C13         3.3058    1.5314   -5.7795 C.3       1 <0>        -0.0087
     14 C14         2.7208    2.1770   -4.5218 C.3       1 <0>         0.1089
     15 O1          1.6060    1.3798   -4.0423 O.3       1 <0>        -0.3706
     16 C15         0.9758    1.8140   -2.9346 C.2       1 <0>         0.6471
     17 O2          1.3472    2.8313   -2.3836 O.2       1 <0>        -0.5742
     18 N1         -0.0670    1.1202   -2.4368 N.am      1 <0>        -0.6989
     19 C16        -0.7527    1.5927   -1.2315 C.3       1 <0>         0.1592
     20 H1         -0.7675    2.6825   -1.2255 H         1 <0>         0.0883
     21 C17        -0.0127    1.0858    0.0080 C.3       1 <0>        -0.1264
     22 C18        -0.7288    1.5792    1.2668 C.3       1 <0>        -0.1141
     23 C19        -2.1642    1.0497    1.2777 C.3       1 <0>        -0.0987
     24 C20        -2.9042    1.5565    0.0381 C.3       1 <0>        -0.1228
     25 H2         -2.9190    2.6464    0.0441 H         1 <0>         0.0709
     26 C21        -2.1881    1.0631   -1.2207 C.3       1 <0>        -0.0994
     27 C22        -4.3180    1.0349    0.0488 C.2       1 <0>         0.4663
     28 O3         -4.7124    0.3398   -0.8574 O.co2     1 <0>        -0.6409
     29 H3          6.2831   -2.7899   -4.8337 H         1 <0>         0.1258
     30 H4          3.8985   -2.9406   -4.2463 H         1 <0>         0.1283
     31 H5          2.4084   -1.0180   -4.6288 H         1 <0>         0.1312
     32 H6          7.1888   -0.7228   -5.8061 H         1 <0>         0.1215
     33 H7          7.6758    1.6597   -6.8022 H         1 <0>         0.1234
     34 H8          7.6636    3.9633   -7.6577 H         1 <0>         0.1270
     35 H9          5.5758    5.2652   -7.6786 H         1 <0>         0.1289
     36 H10         3.4880    4.2648   -6.8397 H         1 <0>         0.1278
     37 H11         2.5228    1.3813   -6.5228 H         1 <0>         0.1144
     38 H12         2.3732    3.1828   -4.7578 H         1 <0>         0.0779
     39 H13         3.4884    2.2297   -3.7498 H         1 <0>         0.0741
     40 H14        -0.3635    0.3081   -2.8767 H         1 <0>         0.4057
     41 H15         0.0021   -0.0041    0.0020 H         1 <0>         0.0632
     42 H16         1.0099    1.4631    0.0003 H         1 <0>         0.0608
     43 H17        -0.2017    1.2182    2.1499 H         1 <0>         0.0608
     44 H18        -0.7436    2.6691    1.2728 H         1 <0>         0.0618
     45 H19        -2.6744    1.4012    2.1745 H         1 <0>         0.0711
     46 H20        -2.1494   -0.0402    1.2717 H         1 <0>         0.0556
     47 H21        -2.7153    1.4241   -2.1037 H         1 <0>         0.0684
     48 H22        -2.1733   -0.0268   -1.2266 H         1 <0>         0.0689
     49 O4         -5.1392    1.3424    1.0651 O.co2     1 <0>        -0.7694
@<TRIPOS>BOND
     1    1    6 ar
     2    1    2 ar
     3    1   29 1
     4    2    3 ar
     5    2   30 1
     6    3    4 ar
     7    3   31 1
     8    4   13 1
     9    4    5 ar
    10    5    6 ar
    11    5    7 1
    12    6   32 1
    13    7   12 ar
    14    7    8 ar
    15    8    9 ar
    16    8   33 1
    17    9   10 ar
    18    9   34 1
    19   10   11 ar
    20   10   35 1
    21   11   12 ar
    22   11   36 1
    23   12   13 1
    24   13   14 1
    25   13   37 1
    26   14   15 1
    27   14   38 1
    28   14   39 1
    29   15   16 1
    30   16   17 2
    31   16   18 am
    32   18   19 1
    33   18   40 1
    34   19   20 1
    35   19   26 1
    36   19   21 1
    37   21   22 1
    38   21   41 1
    39   21   42 1
    40   22   23 1
    41   22   43 1
    42   22   44 1
    43   23   24 1
    44   23   45 1
    45   23   46 1
    46   24   25 1
    47   24   26 1
    48   24   27 1
    49   26   47 1
    50   26   48 1
    51   27   28 2
    52   27   49 1
@<TRIPOS>MOLECULE
ZINC00342395
   37    39     0     0     0
SMALL
USER_CHARGES

@<TRIPOS>ATOM
      1 C1         -0.0184    1.5028    0.0103 C.3       1 <0>        -0.1222
      2 C2          0.0021   -0.0041    0.0020 C.ar      1 <0>        -0.0786
      3 C3          0.0057   -0.6862   -1.2020 C.ar      1 <0>        -0.0955
      4 C4          0.0244   -2.0650   -1.2174 C.ar      1 <0>        -0.0918
      5 C5          0.0401   -2.7742   -0.0135 C.ar      1 <0>         0.0852
      6 C6          0.0368   -2.0802    1.1985 C.ar      1 <0>        -0.1380
      7 C7          0.0229   -0.6996    1.1992 C.ar      1 <0>        -0.0229
      8 Cl1         0.0254    0.1660    2.7040 Cl        1 <0>        -0.0609
      9 N1          0.0582   -4.1419   -0.0220 N.2       1 <0>        -0.4489
     10 C8          0.8710   -4.7892    0.7697 C.2       1 <0>         0.1965
     11 C9          0.8903   -6.2540    0.7606 C.ar      1 <0>        -0.1169
     12 C10         1.7899   -6.9957    1.6449 C.ar      1 <0>         0.0223
     13 C11         2.6565   -6.3367    2.5238 C.ar      1 <0>        -0.1041
     14 C12         3.4791   -7.0647    3.3320 C.ar      1 <0>        -0.0616
     15 C13         3.4684   -8.4565    3.2948 C.ar      1 <0>        -0.0495
     16 C14         2.6375   -9.1291    2.4508 C.ar      1 <0>        -0.0090
     17 C15         1.7763   -8.4106    1.6044 C.ar      1 <0>        -0.0762
     18 C16         0.9034   -9.0715    0.7208 C.ar      1 <0>        -0.0478
     19 C17         0.0736   -8.3689   -0.0939 C.ar      1 <0>        -0.1476
     20 C18         0.0460   -6.9744   -0.0887 C.ar      1 <0>         0.2018
     21 O1         -0.8019   -6.3137   -0.9156 O.3       1 <0>        -0.4672
     22 N2          4.3741   -9.2166    4.1854 N.pl3     1 <0>         0.0312
     23 O2          5.1156   -8.6287    4.9378 O.2       1 <0>        -0.1516
     24 O3          4.3722  -10.4254    4.1604 O.3       1 <0>        -0.1580
     25 H1          1.0042    1.8801    0.0026 H         1 <0>         0.0781
     26 H2         -0.5455    1.8639   -0.8728 H         1 <0>         0.0738
     27 H3         -0.5286    1.8543    0.9071 H         1 <0>         0.0750
     28 H4         -0.0064   -0.1373   -2.1320 H         1 <0>         0.1394
     29 H5          0.0265   -2.5957   -2.1580 H         1 <0>         0.1364
     30 H6          0.0489   -2.6220    2.1327 H         1 <0>         0.1329
     31 H7          1.5286   -4.2446    1.4309 H         1 <0>         0.1126
     32 H8          2.6743   -5.2575    2.5616 H         1 <0>         0.1506
     33 H9          4.1478   -6.5549    4.0097 H         1 <0>         0.1571
     34 H10         2.6405  -10.2089    2.4322 H         1 <0>         0.1634
     35 H11         0.8930  -10.1510    0.6895 H         1 <0>         0.1461
     36 H12        -0.5850   -8.9048   -0.7613 H         1 <0>         0.1452
     37 H13        -0.4264   -6.1103   -1.7832 H         1 <0>         0.4006
@<TRIPOS>BOND
     1    1    2 1
     2    1   25 1
     3    1   26 1
     4    1   27 1
     5    2    7 ar
     6    2    3 ar
     7    3    4 ar
     8    3   28 1
     9    4    5 ar
    10    4   29 1
    11    5    6 ar
    12    5    9 1
    13    6    7 ar
    14    6   30 1
    15    7    8 1
    16    9   10 2
    17   10   11 1
    18   10   31 1
    19   11   20 ar
    20   11   12 ar
    21   12   17 ar
    22   12   13 ar
    23   13   14 ar
    24   13   32 1
    25   14   15 ar
    26   14   33 1
    27   15   16 ar
    28   15   22 1
    29   16   17 ar
    30   16   34 1
    31   17   18 ar
    32   18   19 ar
    33   18   35 1
    34   19   20 ar
    35   19   36 1
    36   20   21 1
    37   21   37 1
    38   22   23 2
    39   22   24 1
@<TRIPOS>MOLECULE
ZINC04225134
   34    36     0     0     0
SMALL
USER_CHARGES

@<TRIPOS>ATOM
      1 C1          0.1574    1.3686    0.6594 C.ar      1 <0>        -0.0903
      2 C2          1.1753    2.0860    0.0579 C.ar      1 <0>        -0.1489
      3 C3          2.2143    1.4242   -0.5699 C.ar      1 <0>        -0.0893
      4 C4          2.2383    0.0425   -0.5986 C.ar      1 <0>        -0.0880
      5 C5          1.2166   -0.6809    0.0051 C.ar      1 <0>         0.2037
      6 C6          0.1751   -0.0122    0.6350 C.ar      1 <0>        -0.1209
      7 N1          1.2371   -2.0792   -0.0222 N.pl3     1 <0>        -0.6368
      8 C7          0.0543   -2.7915    0.0899 C.ar      1 <0>         0.5167
      9 N2         -1.1034   -2.1430    0.0992 N.ar      1 <0>        -0.4183
     10 N3         -2.2228   -2.7698    0.2017 N.ar      1 <0>        -0.1718
     11 C8         -2.2485   -4.0856    0.3011 C.ar      1 <0>        -0.0909
     12 C9         -1.0454   -4.7926    0.2938 C.ar      1 <0>         0.4459
     13 O1         -1.0375   -6.1441    0.3941 O.3       1 <0>        -0.6657
     14 N4          0.0918   -4.1148    0.1812 N.ar      1 <0>        -0.6226
     15 C10        -3.5613   -4.8157    0.4214 C.3       1 <0>         0.0056
     16 C11        -4.0700   -5.1645   -0.9536 C.ar      1 <0>        -0.0550
     17 C12        -4.8835   -4.2783   -1.6347 C.ar      1 <0>        -0.0989
     18 C13        -5.3503   -4.5977   -2.8958 C.ar      1 <0>        -0.1176
     19 C14        -5.0033   -5.8046   -3.4765 C.ar      1 <0>        -0.0438
     20 C15        -4.1892   -6.6911   -2.7943 C.ar      1 <0>        -0.1159
     21 C16        -3.7183   -6.3682   -1.5356 C.ar      1 <0>        -0.0881
     22 Cl1        -5.5898   -6.2067   -5.0602 Cl        1 <0>        -0.0887
     23 Cl2         3.5424   -0.7881   -1.3880 Cl        1 <0>        -0.0779
     24 H1         -0.6503    1.8888    1.1528 H         1 <0>         0.1267
     25 H2          1.1584    3.1656    0.0784 H         1 <0>         0.1246
     26 H3          3.0077    1.9873   -1.0387 H         1 <0>         0.1289
     27 H4         -0.6203   -0.5714    1.1050 H         1 <0>         0.1644
     28 H5          2.0795   -2.5502   -0.1195 H         1 <0>         0.4167
     29 H6         -3.4174   -5.7293    0.9982 H         1 <0>         0.0897
     30 H7         -4.2869   -4.1778    0.9262 H         1 <0>         0.0768
     31 H8         -5.1546   -3.3364   -1.1812 H         1 <0>         0.1324
     32 H9         -5.9862   -3.9054   -3.4277 H         1 <0>         0.1274
     33 H10        -3.9182   -7.6335   -3.2470 H         1 <0>         0.1277
     34 H11        -3.0789   -7.0580   -1.0049 H         1 <0>         0.1421
@<TRIPOS>BOND
     1    1    6 ar
     2    1    2 ar
     3    1   24 1
     4    2    3 ar
     5    2   25 1
     6    3    4 ar
     7    3   26 1
     8    4    5 ar
     9    4   23 1
    10    5    6 ar
    11    5    7 1
    12    6   27 1
    13    7    8 1
    14    7   28 1
    15    8   14 ar
    16    8    9 ar
    17    9   10 ar
    18   10   11 ar
    19   11   12 ar
    20   11   15 1
    21   12   13 1
    22   12   14 ar
    23   15   16 1
    24   15   29 1
    25   15   30 1
    26   16   21 ar
    27   16   17 ar
    28   17   18 ar
    29   17   31 1
    30   18   19 ar
    31   18   32 1
    32   19   20 ar
    33   19   22 1
    34   20   21 ar
    35   20   33 1
    36   21   34 1
@<TRIPOS>MOLECULE
ZINC09669154
   40    42     0     0     0
SMALL
USER_CHARGES

@<TRIPOS>ATOM
      1 C1         -0.0524    1.5022    0.0124 C.3       1 <0>        -0.1062
      2 C2         -0.0236   -0.0045    0.0038 C.ar      1 <0>        -0.1251
      3 C3          0.7399   -0.6854    0.9346 C.ar      1 <0>        -0.0976
      4 C4          0.7689   -2.0659    0.9292 C.ar      1 <0>        -0.1657
      5 C5          0.0297   -2.7709   -0.0123 C.ar      1 <0>         0.1881
      6 C6         -0.7363   -2.0841   -0.9453 C.ar      1 <0>        -0.1120
      7 C7         -0.7649   -0.7032   -0.9310 C.ar      1 <0>        -0.0658
      8 C8         -1.6007    0.0427   -1.9391 C.3       1 <0>        -0.1108
      9 N1          0.0572   -4.1687   -0.0209 N.pl3     1 <0>        -0.6463
     10 C9         -0.0446   -4.8561   -1.2193 C.ar      1 <0>         0.5155
     11 N2         -0.1326   -6.1804   -1.2104 N.ar      1 <0>        -0.6283
     12 C10        -0.2304   -6.8345   -2.3625 C.ar      1 <0>         0.4454
     13 C11        -0.2374   -6.1014   -3.5504 C.ar      1 <0>        -0.0980
     14 N3         -0.1471   -4.7861   -3.4957 N.ar      1 <0>        -0.1569
     15 N4         -0.0586   -4.1828   -2.3623 N.ar      1 <0>        -0.4169
     16 C12        -0.3463   -6.8036   -4.8793 C.3       1 <0>         0.0047
     17 C13        -1.7988   -6.9437   -5.2559 C.ar      1 <0>        -0.0526
     18 C14        -2.4827   -8.1060   -4.9523 C.ar      1 <0>        -0.0888
     19 C15        -3.8148   -8.2347   -5.2976 C.ar      1 <0>        -0.1238
     20 C16        -4.4642   -7.2010   -5.9469 C.ar      1 <0>        -0.1219
     21 C17        -3.7815   -6.0385   -6.2509 C.ar      1 <0>        -0.1220
     22 C18        -2.4494   -5.9070   -5.9004 C.ar      1 <0>        -0.0294
     23 Cl1        -1.5930   -4.4444   -6.2761 Cl        1 <0>        -0.0575
     24 O1         -0.3212   -8.1864   -2.3842 O.3       1 <0>        -0.6727
     25 H1         -0.8575    1.8465    0.6616 H         1 <0>         0.0615
     26 H2          0.9001    1.8817    0.3823 H         1 <0>         0.0588
     27 H3         -0.2207    1.8682   -1.0004 H         1 <0>         0.0636
     28 H4          1.3144   -0.1366    1.6663 H         1 <0>         0.1173
     29 H5          1.3659   -2.5969    1.6558 H         1 <0>         0.1183
     30 H6         -1.3121   -2.6293   -1.6785 H         1 <0>         0.1396
     31 H7         -1.0042    0.2419   -2.8294 H         1 <0>         0.0694
     32 H8         -2.4674   -0.5602   -2.2098 H         1 <0>         0.0636
     33 H9         -1.9349    0.9860   -1.5071 H         1 <0>         0.0625
     34 H10         0.1475   -4.6571    0.8123 H         1 <0>         0.4128
     35 H11         0.1721   -6.2217   -5.6413 H         1 <0>         0.0788
     36 H12         0.1070   -7.7922   -4.8060 H         1 <0>         0.0881
     37 H13        -1.9759   -8.9140   -4.4455 H         1 <0>         0.1386
     38 H14        -4.3486   -9.1431   -5.0606 H         1 <0>         0.1226
     39 H15        -5.5050   -7.3022   -6.2168 H         1 <0>         0.1234
     40 H16        -4.2888   -5.2313   -6.7583 H         1 <0>         0.1260
@<TRIPOS>BOND
     1    1    2 1
     2    1   25 1
     3    1   26 1
     4    1   27 1
     5    2    7 ar
     6    2    3 ar
     7    3    4 ar
     8    3   28 1
     9    4    5 ar
    10    4   29 1
    11    5    6 ar
    12    5    9 1
    13    6    7 ar
    14    6   30 1
    15    7    8 1
    16    8   31 1
    17    8   32 1
    18    8   33 1
    19    9   10 1
    20    9   34 1
    21   10   15 ar
    22   10   11 ar
    23   11   12 ar
    24   12   13 ar
    25   12   24 1
    26   13   14 ar
    27   13   16 1
    28   14   15 ar
    29   16   17 1
    30   16   35 1
    31   16   36 1
    32   17   22 ar
    33   17   18 ar
    34   18   19 ar
    35   18   37 1
    36   19   20 ar
    37   19   38 1
    38   20   21 ar
    39   20   39 1
    40   21   22 ar
    41   21   40 1
    42   22   23 1
@<TRIPOS>MOLECULE
ZINC02718457
   43    46     0     0     0
SMALL
USER_CHARGES

@<TRIPOS>ATOM
      1 C1         -0.0184    1.5028    0.0103 C.3       1 <0>        -0.1092
      2 C2          0.0021   -0.0041    0.0020 C.ar      1 <0>        -0.1075
      3 C3          0.0057   -0.6875   -1.2004 C.ar      1 <0>        -0.0963
      4 C4          0.0239   -2.0682   -1.2114 C.ar      1 <0>        -0.1199
      5 C5          0.0391   -2.7706   -0.0132 C.ar      1 <0>         0.1835
      6 C6          0.0359   -2.0815    1.1922 C.ar      1 <0>        -0.1206
      7 C7          0.0229   -0.7003    1.1964 C.ar      1 <0>        -0.0749
      8 C8          0.0251    0.0486    2.5042 C.3       1 <0>        -0.1111
      9 N1          0.0572   -4.1710   -0.0209 N.pl3     1 <0>        -0.3481
     10 C9         -0.5674   -4.9751   -0.9319 C.ar      1 <0>         0.3717
     11 N2         -1.3237   -4.7579   -2.0052 N.ar      1 <0>        -0.5976
     12 C10        -1.7996   -5.7716   -2.7092 C.ar      1 <0>         0.3821
     13 N3         -1.5537   -7.0380   -2.3898 N.ar      1 <0>        -0.6339
     14 C11        -0.8105   -7.3477   -1.3373 C.ar      1 <0>         0.5088
     15 O1         -0.5655   -8.6406   -1.0199 O.3       1 <0>        -0.6680
     16 C12        -0.2816   -6.3030   -0.5570 C.ar      1 <0>        -0.3637
     17 C13         0.5278   -6.2409    0.5991 C.2       1 <0>         0.1374
     18 N4          0.7237   -4.9887    0.9004 N.2       1 <0>        -0.3003
     19 S1         -2.7964   -5.4304   -4.1216 S.3       1 <0>        -0.0227
     20 C14        -3.2199   -7.0721   -4.7666 C.3       1 <0>        -0.0625
     21 C15        -4.0828   -6.9227   -5.9930 C.ar      1 <0>        -0.1016
     22 C16        -5.4582   -6.8656   -5.8679 C.ar      1 <0>        -0.0727
     23 C17        -6.2499   -6.7285   -6.9926 C.ar      1 <0>        -0.1321
     24 C18        -5.6673   -6.6483   -8.2439 C.ar      1 <0>        -0.0908
     25 C19        -4.2926   -6.7046   -8.3714 C.ar      1 <0>        -0.1570
     26 C20        -3.4981   -6.8366   -7.2449 C.ar      1 <0>         0.1164
     27 F1         -2.1536   -6.8871   -7.3680 F         1 <0>        -0.1305
     28 H1          1.0042    1.8801    0.0026 H         1 <0>         0.0661
     29 H2         -0.5455    1.8639   -0.8728 H         1 <0>         0.0638
     30 H3         -0.5286    1.8543    0.9071 H         1 <0>         0.0654
     31 H4         -0.0061   -0.1408   -2.1317 H         1 <0>         0.1262
     32 H5          0.0260   -2.6014   -2.1506 H         1 <0>         0.1351
     33 H6          0.0473   -2.6249    2.1255 H         1 <0>         0.1282
     34 H7         -1.0019    0.2151    2.8292 H         1 <0>         0.0686
     35 H8          0.5541   -0.5362    3.2568 H         1 <0>         0.0652
     36 H9          0.5247    1.0083    2.3725 H         1 <0>         0.0677
     37 H10         0.9211   -7.0888    1.1400 H         1 <0>         0.1885
     38 H11        -2.3065   -7.6065   -5.0280 H         1 <0>         0.1052
     39 H12        -3.7636   -7.6323   -4.0059 H         1 <0>         0.1079
     40 H13        -5.9144   -6.9286   -4.8910 H         1 <0>         0.1367
     41 H14        -7.3245   -6.6844   -6.8939 H         1 <0>         0.1300
     42 H15        -6.2869   -6.5419   -9.1220 H         1 <0>         0.1310
     43 H16        -3.8377   -6.6422   -9.3490 H         1 <0>         0.1352
@<TRIPOS>BOND
     1    1    2 1
     2    1   28 1
     3    1   29 1
     4    1   30 1
     5    2    7 ar
     6    2    3 ar
     7    3    4 ar
     8    3   31 1
     9    4    5 ar
    10    4   32 1
    11    5    6 ar
    12    5    9 1
    13    6    7 ar
    14    6   33 1
    15    7    8 1
    16    8   34 1
    17    8   35 1
    18    8   36 1
    19    9   18 1
    20    9   10 1
    21   10   16 ar
    22   10   11 ar
    23   11   12 ar
    24   12   13 ar
    25   12   19 1
    26   13   14 ar
    27   14   15 1
    28   14   16 ar
    29   16   17 1
    30   17   18 2
    31   17   37 1
    32   19   20 1
    33   20   21 1
    34   20   38 1
    35   20   39 1
    36   21   26 ar
    37   21   22 ar
    38   22   23 ar
    39   22   40 1
    40   23   24 ar
    41   23   41 1
    42   24   25 ar
    43   24   42 1
    44   25   26 ar
    45   25   43 1
    46   26   27 1
@<TRIPOS>MOLECULE
ZINC00781678
   56    59     0     0     0
SMALL
USER_CHARGES

@<TRIPOS>ATOM
      1 C1         -0.0184    1.5028    0.0103 C.3       1 <0>        -0.0606
      2 C2          0.0021   -0.0041    0.0020 C.2       1 <0>        -0.0623
      3 C3         -1.0783   -0.8055    0.0027 C.2       1 <0>        -0.2053
      4 C4         -0.6011   -2.1363   -0.0068 C.2       1 <0>        -0.1998
      5 C5          0.7423   -2.0686   -0.0126 C.2       1 <0>         0.0626
      6 O1          1.1020   -0.7746   -0.0131 O.3       1 <0>        -0.1741
      7 C6          1.6840   -3.2450   -0.0226 C.3       1 <0>         0.1573
      8 H1          1.0872   -4.1571   -0.0243 H         1 <0>         0.0623
      9 C7          2.4977   -3.2126    1.2573 C.2       1 <0>        -0.4044
     10 C8          1.8811   -3.2501    2.4516 C.2       1 <0>         0.3291
     11 C9          2.6651   -3.2173    3.7368 C.3       1 <0>        -0.1301
     12 C10         4.0377   -3.8569    3.5081 C.3       1 <0>        -0.1088
     13 C11         4.7524   -3.1069    2.3807 C.3       1 <0>        -0.0790
     14 C12         3.8953   -3.1450    1.1381 C.2       1 <0>         0.2943
     15 N1          4.4702   -3.1138   -0.0422 N.2       1 <0>        -0.6410
     16 C13         3.8406   -3.1394   -1.2082 C.2       1 <0>         0.2716
     17 C14         2.4867   -3.2002   -1.3107 C.2       1 <0>        -0.3612
     18 C15         1.8530   -3.2229   -2.5689 C.2       1 <0>         0.5244
     19 O2          2.5197   -3.1859   -3.5870 O.2       1 <0>        -0.5552
     20 O3          0.5063   -3.2856   -2.6456 O.3       1 <0>        -0.3446
     21 C16        -0.0688   -3.3053   -3.9536 C.3       1 <0>         0.0982
     22 C17        -0.2708   -1.8530   -4.4323 C.3       1 <0>        -0.1266
     23 C18        -0.3781   -1.8551   -5.9332 C.3       1 <0>        -0.1144
     24 C19        -1.8387   -1.9158   -6.4196 C.3       1 <0>        -0.1153
     25 C20        -2.6996   -2.8992   -5.6039 C.3       1 <0>        -0.1209
     26 C21        -1.9749   -4.1819   -5.2976 C.3       1 <0>        -0.1088
     27 C22        -1.3164   -4.0533   -3.9087 C.3       1 <0>        -0.1209
     28 C23         4.6604   -3.0962   -2.4720 C.3       1 <0>        -0.0941
     29 O4          0.5367   -3.3178    2.4992 O.3       1 <0>        -0.6227
     30 H2          1.0042    1.8801    0.0026 H         1 <0>         0.0655
     31 H3         -0.5455    1.8639   -0.8728 H         1 <0>         0.0715
     32 H4         -0.5286    1.8543    0.9071 H         1 <0>         0.0723
     33 H5         -2.1119   -0.4924    0.0097 H         1 <0>         0.1288
     34 H6         -1.2002   -3.0349   -0.0086 H         1 <0>         0.1288
     35 H7          2.7941   -2.1838    4.0581 H         1 <0>         0.0788
     36 H8          2.1279   -3.7735    4.5051 H         1 <0>         0.0755
     37 H9          4.6280   -3.7908    4.4221 H         1 <0>         0.0678
     38 H10         3.9111   -4.9026    3.2280 H         1 <0>         0.0658
     39 H11         4.9160   -2.0713    2.6788 H         1 <0>         0.0814
     40 H12         5.7110   -3.5838    2.1766 H         1 <0>         0.0814
     41 H13         0.6194   -3.8071   -4.6338 H         1 <0>         0.0699
     42 H14        -1.1865   -1.4491   -4.0003 H         1 <0>         0.0690
     43 H15         0.5807   -1.2450   -4.1269 H         1 <0>         0.0656
     44 H16         0.0854   -0.9480   -6.3211 H         1 <0>         0.0586
     45 H17         0.1600   -2.7187   -6.3240 H         1 <0>         0.0616
     46 H18        -2.2759   -0.9202   -6.3446 H         1 <0>         0.0567
     47 H19        -1.8485   -2.2238   -7.4652 H         1 <0>         0.0562
     48 H20        -2.9857   -2.4232   -4.6660 H         1 <0>         0.0636
     49 H21        -3.6023   -3.1306   -6.1694 H         1 <0>         0.0566
     50 H22        -2.6833   -5.0103   -5.2916 H         1 <0>         0.0664
     51 H23        -1.2077   -4.3580   -6.0516 H         1 <0>         0.0659
     52 H24        -1.1158   -5.0514   -3.5194 H         1 <0>         0.0664
     53 H25        -2.0080   -3.5463   -3.2358 H         1 <0>         0.0722
     54 H26         5.7190   -3.0472   -2.2169 H         1 <0>         0.0531
     55 H27         4.4695   -3.9942   -3.0597 H         1 <0>         0.0755
     56 H28         4.3856   -2.2162   -3.0535 H         1 <0>         0.0753
@<TRIPOS>BOND
     1    1    2 1
     2    1   30 1
     3    1   31 1
     4    1   32 1
     5    2    6 1
     6    2    3 2
     7    3    4 1
     8    3   33 1
     9    4    5 2
    10    4   34 1
    11    5    6 1
    12    5    7 1
    13    7    8 1
    14    7   17 1
    15    7    9 1
    16    9   14 1
    17    9   10 2
    18   10   11 1
    19   10   29 1
    20   11   12 1
    21   11   35 1
    22   11   36 1
    23   12   13 1
    24   12   37 1
    25   12   38 1
    26   13   14 1
    27   13   39 1
    28   13   40 1
    29   14   15 2
    30   15   16 1
    31   16   17 2
    32   16   28 1
    33   17   18 1
    34   18   19 2
    35   18   20 1
    36   20   21 1
    37   21   27 1
    38   21   22 1
    39   21   41 1
    40   22   23 1
    41   22   42 1
    42   22   43 1
    43   23   24 1
    44   23   44 1
    45   23   45 1
    46   24   25 1
    47   24   46 1
    48   24   47 1
    49   25   26 1
    50   25   48 1
    51   25   49 1
    52   26   27 1
    53   26   50 1
    54   26   51 1
    55   27   52 1
    56   27   53 1
    57   28   54 1
    58   28   55 1
    59   28   56 1
@<TRIPOS>MOLECULE
ZINC13356953
   34    37     0     0     0
SMALL
USER_CHARGES
(3E)-3-[(5-bromo-2-thienyl)methylene]-1,2-dihydrocyclopenta[b]quinoline-9-carboxylic acid
@<TRIPOS>ATOM
      1 C1         -1.2346    1.7441    0.0174 C.ar      1 <0>        -0.1318
      2 C2         -0.0126    1.0758    0.0080 C.ar      1 <0>        -0.1036
      3 C3          1.1634    1.7611    0.0004 C.ar      1 <0>        -0.1014
      4 C4          1.1515    3.1689    0.0076 C.ar      1 <0>         0.1355
      5 C5         -0.0959    3.8425    0.0227 C.ar      1 <0>        -0.0822
      6 C6         -1.2848    3.1074    0.0301 C.ar      1 <0>        -0.0691
      7 C7         -0.0981    5.3061    0.0292 C.ar      1 <0>        -0.0084
      8 C8          1.1307    5.9496    0.0209 C.ar      1 <0>        -0.1377
      9 C9          2.3170    5.1959    0.0060 C.ar      1 <0>         0.1782
     10 N1          2.2854    3.8655    0.0001 N.ar      1 <0>        -0.4825
     11 C10         3.4869    6.0908   -0.0010 C.2       1 <0>        -0.0351
     12 C11         4.7798    5.7014   -0.0151 C.2       1 <0>        -0.0571
     13 C12         5.8453    6.7035   -0.0200 C.2       1 <0>        -0.0868
     14 C13         7.2196    6.5183   -0.0339 C.2       1 <0>        -0.1658
     15 C14         8.0275    7.6289   -0.0366 C.2       1 <0>        -0.1006
     16 C15         7.4595    8.8660   -0.0257 C.2       1 <0>        -0.2118
     17 S1          5.7157    8.4842   -0.0177 S.3       1 <0>         0.1375
     18 Br1         8.3030   10.5584   -0.0261 Br        1 <0>         0.0262
     19 C16         2.9941    7.5163    0.0104 C.3       1 <0>        -0.0984
     20 C17         1.4626    7.4215    0.0246 C.3       1 <0>        -0.0709
     21 C18        -1.3629    6.0702    0.0443 C.2       1 <0>         0.4998
     22 O1         -1.8924    6.3891   -1.0013 O.co2     1 <0>        -0.6157
     23 H1         -2.1532    1.1763    0.0187 H         1 <0>         0.1255
     24 H2          0.0021   -0.0041    0.0020 H         1 <0>         0.1257
     25 H3          2.1020    1.2270   -0.0107 H         1 <0>         0.1311
     26 H4         -2.2377    3.6157    0.0416 H         1 <0>         0.1326
     27 H5          5.0271    4.6502   -0.0228 H         1 <0>         0.1533
     28 H6          7.6440    5.5252   -0.0420 H         1 <0>         0.1431
     29 H7          9.1022    7.5220   -0.0477 H         1 <0>         0.1371
     30 H8          3.3312    8.0388   -0.8847 H         1 <0>         0.0946
     31 H9          3.3482    8.0318    0.9032 H         1 <0>         0.0952
     32 H10         1.0494    7.9009   -0.8628 H         1 <0>         0.0891
     33 H11         1.0655    7.8928    0.9237 H         1 <0>         0.0916
     34 O2         -1.9287    6.4130    1.2179 O.co2     1 <0>        -0.7372
@<TRIPOS>BOND
     1    1    6 ar
     2    1    2 ar
     3    1   23 1
     4    2    3 ar
     5    2   24 1
     6    3    4 ar
     7    3   25 1
     8    4   10 ar
     9    4    5 ar
    10    5    6 ar
    11    5    7 ar
    12    6   26 1
    13    7    8 ar
    14    7   21 1
    15    8   20 1
    16    8    9 ar
    17    9   10 ar
    18    9   11 1
    19   11   12 2
    20   11   19 1
    21   12   13 1
    22   12   27 1
    23   13   17 1
    24   13   14 2
    25   14   15 1
    26   14   28 1
    27   15   16 2
    28   15   29 1
    29   16   17 1
    30   16   18 1
    31   19   20 1
    32   19   30 1
    33   19   31 1
    34   20   32 1
    35   20   33 1
    36   21   22 2
    37   21   34 1
@<TRIPOS>MOLECULE
ZINC20588512
   31    33     0     0     0
SMALL
USER_CHARGES
4-(5-chloro-2-methyl-phenyl)-5-phenyl-1,2,4-triazole-3-thiol
@<TRIPOS>ATOM
      1 C1         -0.8670    3.7785    3.0712 C.3       1 <0>        -0.1176
      2 C2         -0.1753    4.5782    1.9973 C.ar      1 <0>        -0.0532
      3 C3          0.7965    5.4988    2.3389 C.ar      1 <0>        -0.1024
      4 C4          1.4277    6.2371    1.3553 C.ar      1 <0>        -0.1016
      5 C5          1.0919    6.0527    0.0252 C.ar      1 <0>        -0.0331
      6 C6          0.1243    5.1290   -0.3225 C.ar      1 <0>        -0.0891
      7 C7         -0.5106    4.3866    0.6640 C.ar      1 <0>         0.1708
      8 N1         -1.4927    3.4493    0.3146 N.pl3     1 <0>        -0.4546
      9 C8         -1.3050    2.1165    0.0198 C.2       1 <0>         0.1546
     10 N2         -2.4858    1.6134   -0.2562 N.2       1 <0>        -0.2678
     11 N3         -3.3875    2.5226   -0.1484 N.2       1 <0>        -0.3377
     12 C9         -2.8381    3.6663    0.1951 C.2       1 <0>         0.3875
     13 S1         -3.6779    5.1936    0.4540 S.3       1 <0>        -0.7864
     14 C10        -0.0176    1.3904    0.0152 C.ar      1 <0>         0.0169
     15 C11         1.1860    2.0973    0.0066 C.ar      1 <0>        -0.1216
     16 C12         2.3840    1.4135   -0.0039 C.ar      1 <0>        -0.1151
     17 C13         2.3944    0.0299   -0.0054 C.ar      1 <0>        -0.1252
     18 C14         1.2049   -0.6770    0.0034 C.ar      1 <0>        -0.1185
     19 C15        -0.0000   -0.0055    0.0135 C.ar      1 <0>        -0.0896
     20 Cl1         1.8868    6.9819   -1.2071 Cl        1 <0>        -0.0698
     21 H1         -0.4709    4.0673    4.0559 H         1 <0>         0.0694
     22 H2         -0.6867    2.7064    2.9035 H         1 <0>         0.0685
     23 H3         -1.9482    3.9781    3.0380 H         1 <0>         0.0829
     24 H4          1.0606    5.6447    3.3759 H         1 <0>         0.1383
     25 H5          2.1840    6.9594    1.6252 H         1 <0>         0.1367
     26 H6         -0.1372    4.9846   -1.3604 H         1 <0>         0.1350
     27 H7          1.1793    3.1774    0.0075 H         1 <0>         0.1244
     28 H8          3.3160    1.9592   -0.0104 H         1 <0>         0.1213
     29 H9          3.3351   -0.5007   -0.0132 H         1 <0>         0.1197
     30 H10         1.2200   -1.7569    0.0022 H         1 <0>         0.1240
     31 H11        -0.9278   -0.5583    0.0204 H         1 <0>         0.1332
@<TRIPOS>BOND
     1    1    2 1
     2    1   21 1
     3    1   22 1
     4    1   23 1
     5    2    7 ar
     6    2    3 ar
     7    3    4 ar
     8    3   24 1
     9    4    5 ar
    10    4   25 1
    11    5    6 ar
    12    5   20 1
    13    6    7 ar
    14    6   26 1
    15    7    8 1
    16    8   12 1
    17    8    9 1
    18    9   14 1
    19    9   10 2
    20   10   11 1
    21   11   12 2
    22   12   13 1
    23   14   19 ar
    24   14   15 ar
    25   15   16 ar
    26   15   27 1
    27   16   17 ar
    28   16   28 1
    29   17   18 ar
    30   17   29 1
    31   18   19 ar
    32   18   30 1
    33   19   31 1
@<TRIPOS>MOLECULE
ZINC04552438
   56    59     0     0     0
SMALL
USER_CHARGES

@<TRIPOS>ATOM
      1 C1         -0.0167    1.3824    0.0096 C.ar      1 <0>        -0.1089
      2 C2          1.1645    2.0989    0.0022 C.ar      1 <0>        -0.1240
      3 C3          2.3843    1.4409   -0.0135 C.ar      1 <0>        -0.0788
      4 C4          2.4187    0.0511   -0.0213 C.ar      1 <0>        -0.1276
      5 C5          1.2163   -0.6779   -0.0132 C.ar      1 <0>        -0.0915
      6 C6          0.0021   -0.0041    0.0020 C.ar      1 <0>        -0.0901
      7 C7          1.2619   -2.1575   -0.0211 C.2       1 <0>         0.4236
      8 C8          2.5538   -2.8497   -0.0372 C.2       1 <0>        -0.4342
      9 C9          3.7113   -2.1571   -0.0450 C.2       1 <0>         0.2488
     10 O1          4.8896   -2.8225   -0.0598 O.3       1 <0>        -0.6411
     11 C10         3.7064   -0.6750   -0.0375 C.2       1 <0>         0.3887
     12 O2          4.7539   -0.0607   -0.0450 O.2       1 <0>        -0.4360
     13 C11         2.5895   -4.3563   -0.0446 C.3       1 <0>        -0.0085
     14 C12         2.4901   -4.8758    1.3911 C.3       1 <0>        -0.1051
     15 C13         2.5263   -6.4054    1.3836 C.3       1 <0>        -0.1172
     16 C14         2.4269   -6.9249    2.8193 C.3       1 <0>        -0.1152
     17 C15         2.4631   -8.4545    2.8118 C.3       1 <0>        -0.0867
     18 H1          1.6782   -8.8333    2.1572 H         1 <0>         0.0658
     19 C16         3.8254   -8.9299    2.3026 C.3       1 <0>        -0.1136
     20 C17         4.9272   -8.3982    3.2214 C.3       1 <0>        -0.1189
     21 C18         4.7029   -8.9206    4.6419 C.3       1 <0>        -0.0766
     22 H2          4.7287  -10.0103    4.6366 H         1 <0>         0.0639
     23 C19         5.8047   -8.3889    5.5607 C.3       1 <0>        -0.1171
     24 C20         5.5805   -8.9113    6.9812 C.3       1 <0>        -0.1177
     25 C21         4.2182   -8.4359    7.4903 C.3       1 <0>        -0.1200
     26 C22         3.1164   -8.9676    6.5715 C.3       1 <0>        -0.1138
     27 C23         3.3407   -8.4452    5.1510 C.3       1 <0>        -0.0835
     28 H3          3.3149   -7.3555    5.1564 H         1 <0>         0.0746
     29 C24         2.2389   -8.9769    4.2322 C.3       1 <0>        -0.1070
     30 O3          0.2284   -2.7981   -0.0139 O.2       1 <0>        -0.5154
     31 H4         -0.9613    1.9058    0.0260 H         1 <0>         0.1257
     32 H5          1.1373    3.1785    0.0083 H         1 <0>         0.1259
     33 H6          3.3047    2.0059   -0.0199 H         1 <0>         0.1329
     34 H7         -0.9248   -0.5583    0.0083 H         1 <0>         0.1353
     35 H8          1.7507   -4.7367   -0.6275 H         1 <0>         0.0391
     36 H9          3.5248   -4.6954   -0.4898 H         1 <0>         0.0569
     37 H10         3.3289   -4.4954    1.9740 H         1 <0>         0.0520
     38 H11         1.5548   -4.5367    1.8363 H         1 <0>         0.0482
     39 H12         1.6875   -6.7858    0.8007 H         1 <0>         0.0526
     40 H13         3.4617   -6.7445    0.9384 H         1 <0>         0.0587
     41 H14         3.2657   -6.5445    3.4022 H         1 <0>         0.0654
     42 H15         1.4916   -6.5858    3.2645 H         1 <0>         0.0554
     43 H16         3.8511  -10.0196    2.2973 H         1 <0>         0.0539
     44 H17         3.9851   -8.5577    1.2907 H         1 <0>         0.0665
     45 H18         5.8976   -8.7369    2.8587 H         1 <0>         0.0572
     46 H19         4.9014   -7.3085    3.2268 H         1 <0>         0.0705
     47 H20         6.7752   -8.7276    5.1980 H         1 <0>         0.0592
     48 H21         5.7789   -7.2992    5.5661 H         1 <0>         0.0628
     49 H22         5.6062  -10.0010    6.9758 H         1 <0>         0.0579
     50 H23         6.3654   -8.5325    7.6358 H         1 <0>         0.0575
     51 H24         4.0585   -8.8081    8.5023 H         1 <0>         0.0567
     52 H25         4.1925   -7.3462    7.4957 H         1 <0>         0.0613
     53 H26         3.1422  -10.0573    6.5661 H         1 <0>         0.0577
     54 H27         2.1460   -8.6289    6.9342 H         1 <0>         0.0588
     55 H28         1.2684   -8.6382    4.5949 H         1 <0>         0.0587
     56 H29         2.2647  -10.0666    4.2269 H         1 <0>         0.0561
@<TRIPOS>BOND
     1    1    6 ar
     2    1    2 ar
     3    1   31 1
     4    2    3 ar
     5    2   32 1
     6    3    4 ar
     7    3   33 1
     8    4   11 1
     9    4    5 ar
    10    5    6 ar
    11    5    7 1
    12    6   34 1
    13    7    8 1
    14    7   30 2
    15    8    9 2
    16    8   13 1
    17    9   10 1
    18    9   11 1
    19   11   12 2
    20   13   14 1
    21   13   35 1
    22   13   36 1
    23   14   15 1
    24   14   37 1
    25   14   38 1
    26   15   16 1
    27   15   39 1
    28   15   40 1
    29   16   17 1
    30   16   41 1
    31   16   42 1
    32   17   18 1
    33   17   29 1
    34   17   19 1
    35   19   20 1
    36   19   43 1
    37   19   44 1
    38   20   21 1
    39   20   45 1
    40   20   46 1
    41   21   22 1
    42   21   27 1
    43   21   23 1
    44   23   24 1
    45   23   47 1
    46   23   48 1
    47   24   25 1
    48   24   49 1
    49   24   50 1
    50   25   26 1
    51   25   51 1
    52   25   52 1
    53   26   27 1
    54   26   53 1
    55   26   54 1
    56   27   28 1
    57   27   29 1
    58   29   55 1
    59   29   56 1
@<TRIPOS>MOLECULE
ZINC43554459
   35    37     0     0     0
SMALL
USER_CHARGES

@<TRIPOS>ATOM
      1 C1         -0.0187    1.5258    0.0104 C.3       1 <0>        -0.1451
      2 C2          0.0021   -0.0041    0.0020 C.3       1 <0>        -0.0329
      3 C3          0.7074   -0.4901   -1.2379 C.2       1 <0>        -0.1953
      4 C4          2.0244   -0.7607   -1.4189 C.2       1 <0>        -0.1618
      5 C5          2.4568   -1.2007   -2.6524 C.2       1 <0>        -0.1697
      6 C6          1.5374   -1.3499   -3.6564 C.2       1 <0>        -0.0779
      7 S1          0.0236   -0.8651   -2.8436 S.3       1 <0>         0.1635
      8 C7          1.7440   -1.7995   -5.0488 C.2       1 <0>         0.0407
      9 C8          2.7157   -1.2483   -5.8158 C.2       1 <0>        -0.2078
     10 S2          2.5603   -2.1099   -7.3685 S.3       1 <0>         0.0448
     11 C9          1.2081   -3.1822   -6.9618 C.ar      1 <0>         0.1627
     12 C10         0.9090   -2.8509   -5.6231 C.ar      1 <0>        -0.2987
     13 C11        -0.1560   -3.5811   -5.0380 C.ar      1 <0>         0.4760
     14 O1         -0.5301   -3.3398   -3.7587 O.3       1 <0>        -0.6403
     15 N1         -0.7802   -4.4996   -5.7549 N.ar      1 <0>        -0.5875
     16 C12        -0.4452   -4.7633   -7.0051 C.ar      1 <0>         0.3568
     17 N2          0.5307   -4.1112   -7.6069 N.ar      1 <0>        -0.5703
     18 C13        -1.2006   -5.8243   -7.7632 C.3       1 <0>         0.0835
     19 H1         -0.6421   -6.0987   -8.6580 H         1 <0>         0.1158
     20 C14        -2.5742   -5.2834   -8.1652 C.3       1 <0>        -0.1201
     21 C15        -3.2917   -6.3131   -9.0403 C.3       1 <0>        -0.1513
     22 Cl1        -1.4098   -7.2771   -6.7161 Cl        1 <0>        -0.1608
     23 H2          1.0039    1.9031    0.0027 H         1 <0>         0.0554
     24 H3         -0.5459    1.8868   -0.8726 H         1 <0>         0.0558
     25 H4         -0.5289    1.8773    0.9072 H         1 <0>         0.0566
     26 H5          0.5293   -0.3651    0.8851 H         1 <0>         0.0758
     27 H6         -1.0205   -0.3814    0.0098 H         1 <0>         0.0734
     28 H7          2.7255   -0.6329   -0.6073 H         1 <0>         0.1176
     29 H8          3.4997   -1.4229   -2.8232 H         1 <0>         0.1218
     30 H9          3.4170   -0.4712   -5.5499 H         1 <0>         0.1826
     31 H10        -3.1657   -5.0923   -7.2698 H         1 <0>         0.0836
     32 H11        -2.4501   -4.3555   -8.7235 H         1 <0>         0.0777
     33 H12        -2.7001   -6.5042   -9.9357 H         1 <0>         0.0549
     34 H13        -3.4158   -7.2410   -8.4820 H         1 <0>         0.0630
     35 H14        -4.2702   -5.9277   -9.3267 H         1 <0>         0.0575
@<TRIPOS>BOND
     1    1    2 1
     2    1   23 1
     3    1   24 1
     4    1   25 1
     5    2    3 1
     6    2   26 1
     7    2   27 1
     8    3    7 1
     9    3    4 2
    10    4    5 1
    11    4   28 1
    12    5    6 2
    13    5   29 1
    14    6    7 1
    15    6    8 1
    16    8   12 1
    17    8    9 2
    18    9   10 1
    19    9   30 1
    20   10   11 1
    21   11   17 ar
    22   11   12 ar
    23   12   13 ar
    24   13   14 1
    25   13   15 ar
    26   15   16 ar
    27   16   17 ar
    28   16   18 1
    29   18   19 1
    30   18   20 1
    31   18   22 1
    32   20   21 1
    33   20   31 1
    34   20   32 1
    35   21   33 1
    36   21   34 1
    37   21   35 1
@<TRIPOS>MOLECULE
ZINC13122648
   42    45     0     0     0
SMALL
USER_CHARGES

@<TRIPOS>ATOM
      1 C1         -0.0876    1.4996    0.0902 C.3       1 <0>        -0.1024
      2 C2         -0.0350   -0.0057    0.0445 C.2       1 <0>         0.1150
      3 C3         -0.2134   -0.6343   -1.1352 C.2       1 <0>        -0.2691
      4 C4         -0.1677   -2.0398   -1.1978 C.2       1 <0>         0.3537
      5 C5          0.0656   -2.7557   -0.0132 C.2       1 <0>        -0.4697
      6 C6          0.2444   -2.0291    1.1911 C.2       1 <0>         0.5163
      7 O1          0.4486   -2.6205    2.2364 O.2       1 <0>        -0.5421
      8 O2          0.1933   -0.6861    1.1759 O.3       1 <0>        -0.2914
      9 C7          0.1227   -4.2187   -0.0210 C.2       1 <0>         0.4480
     10 N1          1.2620   -4.7121   -0.1223 N.2       1 <0>        -0.6148
     11 C8          1.9298   -5.8508   -0.3080 C.ar      1 <0>         0.2099
     12 C9          3.3252   -5.6981   -0.4789 C.ar      1 <0>        -0.0972
     13 C10         4.1445   -6.7752   -0.7006 C.ar      1 <0>        -0.1127
     14 C11         3.6059   -8.0495   -0.7625 C.ar      1 <0>        -0.1305
     15 C12         2.2527   -8.2232   -0.5900 C.ar      1 <0>        -0.0852
     16 C13         1.3983   -7.1405   -0.3513 C.ar      1 <0>        -0.1531
     17 S1         -0.2930   -7.5128   -0.1039 S.3       1 <0>        -0.1026
     18 C14        -1.2595   -6.1544   -0.7493 C.3       1 <0>        -0.0383
     19 H1         -0.9020   -5.9168   -1.7512 H         1 <0>         0.1010
     20 C15        -1.1874   -4.9133    0.0990 C.3       1 <0>        -0.1299
     21 C16        -2.6996   -6.5885   -0.8426 C.ar      1 <0>        -0.0474
     22 C17        -3.3785   -6.9797    0.2963 C.ar      1 <0>        -0.0899
     23 C18        -4.6993   -7.3780    0.2114 C.ar      1 <0>        -0.1083
     24 C19        -5.3420   -7.3851   -1.0138 C.ar      1 <0>        -0.0342
     25 C20        -4.6620   -6.9935   -2.1533 C.ar      1 <0>        -0.1082
     26 C21        -3.3429   -6.5901   -2.0662 C.ar      1 <0>        -0.0856
     27 Cl1        -7.0007   -7.8858   -1.1213 Cl        1 <0>        -0.0773
     28 O3         -0.3450   -2.6855   -2.3722 O.3       1 <0>        -0.6636
     29 H2          0.0802    1.8382    1.1126 H         1 <0>         0.0761
     30 H3          0.6850    1.9101   -0.5599 H         1 <0>         0.0853
     31 H4         -1.0662    1.8395   -0.2490 H         1 <0>         0.0856
     32 H5         -0.3917   -0.0594   -2.0319 H         1 <0>         0.1334
     33 H6          3.7562   -4.7089   -0.4340 H         1 <0>         0.1266
     34 H7          5.2072   -6.6300   -0.8271 H         1 <0>         0.1233
     35 H8          4.2443   -8.9012   -0.9455 H         1 <0>         0.1234
     36 H9          1.8390   -9.2196   -0.6398 H         1 <0>         0.1205
     37 H10        -1.3476   -5.1854    1.1423 H         1 <0>         0.0942
     38 H11        -1.9782   -4.2296   -0.2099 H         1 <0>         0.0996
     39 H12        -2.8766   -6.9744    1.2526 H         1 <0>         0.1365
     40 H13        -5.2295   -7.6839    1.1012 H         1 <0>         0.1345
     41 H14        -5.1631   -6.9992   -3.1100 H         1 <0>         0.1347
     42 H15        -2.8134   -6.2798   -2.9549 H         1 <0>         0.1357
@<TRIPOS>BOND
     1    1    2 1
     2    1   29 1
     3    1   30 1
     4    1   31 1
     5    2    8 1
     6    2    3 2
     7    3    4 1
     8    3   32 1
     9    4    5 2
    10    4   28 1
    11    5    6 1
    12    5    9 1
    13    6    7 2
    14    6    8 1
    15    9   20 1
    16    9   10 2
    17   10   11 1
    18   11   16 ar
    19   11   12 ar
    20   12   13 ar
    21   12   33 1
    22   13   14 ar
    23   13   34 1
    24   14   15 ar
    25   14   35 1
    26   15   16 ar
    27   15   36 1
    28   16   17 1
    29   17   18 1
    30   18   19 1
    31   18   20 1
    32   18   21 1
    33   20   37 1
    34   20   38 1
    35   21   26 ar
    36   21   22 ar
    37   22   23 ar
    38   22   39 1
    39   23   24 ar
    40   23   40 1
    41   24   25 ar
    42   24   27 1
    43   25   26 ar
    44   25   41 1
    45   26   42 1
@<TRIPOS>MOLECULE
ZINC00082155
   39    41     0     0     0
SMALL
USER_CHARGES
2-(9,10-dimethyl-3,5-dithiabicyclo[5.4.0]undeca-7,9,11-trien-4-yl)-4-nitro-phenol
@<TRIPOS>ATOM
      1 C1          2.3215   -3.5202    7.3226 C.3       1 <0>        -0.1127
      2 C2          1.5165   -2.6206    6.4206 C.ar      1 <0>        -0.0967
      3 C3          1.8741   -1.2943    6.2690 C.ar      1 <0>        -0.0980
      4 C4          1.1268   -0.4713    5.4347 C.ar      1 <0>        -0.0792
      5 C5          0.0541   -0.9636    4.7685 C.ar      1 <0>        -0.0548
      6 C6         -0.3151   -2.2952    4.9152 C.ar      1 <0>        -0.1087
      7 C7          0.4203   -3.1215    5.7438 C.ar      1 <0>        -0.0847
      8 C8          0.0278   -4.5670    5.9089 C.3       1 <0>        -0.1145
      9 C9         -0.7791   -0.0948    3.8494 C.3       1 <0>        -0.1403
     10 S1          0.0865    0.0978    2.2705 S.3       1 <0>        -0.0515
     11 C10         1.1902    1.5057    2.5057 C.3       1 <0>         0.0315
     12 S2          2.4578    1.1864    3.7497 S.3       1 <0>        -0.2268
     13 C11         1.5513    0.9762    5.3041 C.3       1 <0>        -0.0615
     14 C12         1.8626    1.8224    1.1947 C.ar      1 <0>        -0.2140
     15 C13         3.1188    2.3975    1.1831 C.ar      1 <0>         0.0177
     16 C14         3.7339    2.6932   -0.0191 C.ar      1 <0>        -0.1765
     17 C15         3.0961    2.4095   -1.2129 C.ar      1 <0>        -0.0080
     18 C16         1.8423    1.8301   -1.2067 C.ar      1 <0>        -0.2445
     19 C17         1.2228    1.5324   -0.0014 C.ar      1 <0>         0.3110
     20 N1          5.0770    3.3149   -0.0286 N.pl3     1 <0>         0.0679
     21 O1          5.6197    3.5762   -1.0873 O.2       1 <0>        -0.2234
     22 O2          5.6396    3.5652    1.0222 O.3       1 <0>        -0.2192
     23 H1          3.1199   -3.9902    6.7484 H         1 <0>         0.0680
     24 H2          2.7538   -2.9311    8.1314 H         1 <0>         0.0618
     25 H3          1.6729   -4.2901    7.7405 H         1 <0>         0.0668
     26 H4          2.7299   -0.8993    6.7963 H         1 <0>         0.1204
     27 H5         -1.1720   -2.6826    4.3841 H         1 <0>         0.1214
     28 H6          0.5381   -5.1702    5.1580 H         1 <0>         0.0691
     29 H7          0.3117   -4.9092    6.9041 H         1 <0>         0.0672
     30 H8         -1.0504   -4.6673    5.7841 H         1 <0>         0.0628
     31 H9         -0.9255    0.8838    4.3066 H         1 <0>         0.0782
     32 H10        -1.7472   -0.5660    3.6792 H         1 <0>         0.1076
     33 H11         0.6005    2.3681    2.8165 H         1 <0>         0.0907
     34 H12         0.6689    1.6161    5.3020 H         1 <0>         0.0869
     35 H13         2.1942    1.2446    6.1424 H         1 <0>         0.1126
     36 H14         3.6189    2.6201    2.1141 H         1 <0>         0.1381
     37 H15         3.5787    2.6414   -2.1508 H         1 <0>         0.1273
     38 H16         1.3446    1.6087   -2.1393 H         1 <0>         0.1254
     39 O3         -0.0110    0.9628    0.0073 O.3       1 <0>        -0.6176
@<TRIPOS>BOND
     1    1    2 1
     2    1   23 1
     3    1   24 1
     4    1   25 1
     5    2    7 ar
     6    2    3 ar
     7    3    4 ar
     8    3   26 1
     9    4   13 1
    10    4    5 ar
    11    5    6 ar
    12    5    9 1
    13    6    7 ar
    14    6   27 1
    15    7    8 1
    16    8   28 1
    17    8   29 1
    18    8   30 1
    19    9   10 1
    20    9   31 1
    21    9   32 1
    22   10   11 1
    23   11   12 1
    24   11   14 1
    25   11   33 1
    26   12   13 1
    27   13   34 1
    28   13   35 1
    29   14   19 ar
    30   14   15 ar
    31   15   16 ar
    32   15   36 1
    33   16   17 ar
    34   16   20 1
    35   17   18 ar
    36   17   37 1
    37   18   19 ar
    38   18   38 1
    39   19   39 1
    40   20   21 2
    41   20   22 1
@<TRIPOS>MOLECULE
ZINC20589692
   31    33     0     0     0
SMALL
USER_CHARGES
4-(4-bromo-2-methyl-phenyl)-5-phenyl-1,2,4-triazole-3-thiol
@<TRIPOS>ATOM
      1 C1          3.7101   -0.7172   -0.0396 C.3       1 <0>        -0.1166
      2 C2          2.3968    0.0217   -0.0216 C.ar      1 <0>        -0.0529
      3 C3          1.2080   -0.6817   -0.0136 C.ar      1 <0>        -0.0843
      4 C4          0.0021   -0.0041    0.0020 C.ar      1 <0>        -0.0810
      5 C5         -0.0167    1.3796    0.0096 C.ar      1 <0>        -0.0896
      6 C6          1.1690    2.0874    0.0021 C.ar      1 <0>        -0.0935
      7 C7          2.3807    1.4096   -0.0135 C.ar      1 <0>         0.1761
      8 N1          3.5859    2.1259   -0.0212 N.pl3     1 <0>        -0.4567
      9 C8          4.3128    2.5453    1.0716 C.2       1 <0>         0.1547
     10 N2          5.3678    3.1775    0.6125 N.2       1 <0>        -0.2677
     11 N3          5.3526    3.1833   -0.6724 N.2       1 <0>        -0.3375
     12 C9          4.2895    2.5496   -1.1152 C.2       1 <0>         0.3875
     13 S1          3.8506    2.2963   -2.8028 S.3       1 <0>        -0.7867
     14 C10         3.9696    2.3250    2.4923 C.ar      1 <0>         0.0168
     15 C11         2.6805    1.9248    2.8482 C.ar      1 <0>        -0.1224
     16 C12         2.3684    1.7154    4.1756 C.ar      1 <0>        -0.1151
     17 C13         3.3265    1.9128    5.1541 C.ar      1 <0>        -0.1252
     18 C14         4.6046    2.3145    4.8086 C.ar      1 <0>        -0.1183
     19 C15         4.9315    2.5219    3.4845 C.ar      1 <0>        -0.0898
     20 Br1        -1.6235   -0.9702    0.0123 Br        1 <0>        -0.0542
     21 H1          3.5211   -1.8008   -0.0438 H         1 <0>         0.0696
     22 H2          4.2933   -0.4502    0.8540 H         1 <0>         0.0692
     23 H3          4.2745   -0.4399   -0.9422 H         1 <0>         0.0837
     24 H4          1.2200   -1.7617   -0.0198 H         1 <0>         0.1377
     25 H5         -0.9595    1.9064    0.0169 H         1 <0>         0.1383
     26 H6          1.1538    3.1673    0.0077 H         1 <0>         0.1346
     27 H7          1.9304    1.7751    2.0857 H         1 <0>         0.1250
     28 H8          1.3727    1.4014    4.4519 H         1 <0>         0.1214
     29 H9          3.0755    1.7522    6.1922 H         1 <0>         0.1197
     30 H10         5.3478    2.4664    5.5773 H         1 <0>         0.1240
     31 H11         5.9295    2.8355    3.2162 H         1 <0>         0.1332
@<TRIPOS>BOND
     1    1    2 1
     2    1   21 1
     3    1   22 1
     4    1   23 1
     5    2    7 ar
     6    2    3 ar
     7    3    4 ar
     8    3   24 1
     9    4    5 ar
    10    4   20 1
    11    5    6 ar
    12    5   25 1
    13    6    7 ar
    14    6   26 1
    15    7    8 1
    16    8   12 1
    17    8    9 1
    18    9   14 1
    19    9   10 2
    20   10   11 1
    21   11   12 2
    22   12   13 1
    23   14   19 ar
    24   14   15 ar
    25   15   16 ar
    26   15   27 1
    27   16   17 ar
    28   16   28 1
    29   17   18 ar
    30   17   29 1
    31   18   19 ar
    32   18   30 1
    33   19   31 1
@<TRIPOS>MOLECULE
ZINC36963917
   28    30     0     0     0
SMALL
USER_CHARGES

@<TRIPOS>ATOM
      1 C1         -0.0167    1.3794    0.0096 C.ar      1 <0>        -0.1246
      2 C2          1.1683    2.0935    0.0021 C.ar      1 <0>        -0.1161
      3 C3          2.3774    1.4294   -0.0134 C.ar      1 <0>        -0.0881
      4 C4          2.4035    0.0338   -0.0211 C.ar      1 <0>         0.0188
      5 C5          1.2043   -0.6806   -0.0130 C.ar      1 <0>        -0.1237
      6 C6          0.0021   -0.0041    0.0020 C.ar      1 <0>        -0.1137
      7 C7          3.6952   -0.6844   -0.0382 C.2       1 <0>         0.1609
      8 N1          4.8710   -0.1696   -0.3153 N.2       1 <0>        -0.2608
      9 N2          5.7777   -1.0768   -0.2366 N.2       1 <0>        -0.3347
     10 C8          5.2377   -2.2284    0.0958 C.2       1 <0>         0.3973
     11 N3          3.8939   -2.0189    0.2393 N.pl3     1 <0>        -0.4585
     12 C9          2.9203   -2.9662    0.5930 C.ar      1 <0>         0.1444
     13 C10         2.5966   -3.1660    1.9302 C.ar      1 <0>         0.1589
     14 C11         1.6367   -4.0996    2.2756 C.ar      1 <0>        -0.1728
     15 C12         0.9987   -4.8348    1.2905 C.ar      1 <0>         0.1427
     16 C13         1.3199   -4.6370   -0.0415 C.ar      1 <0>        -0.1345
     17 C14         2.2751   -3.7010   -0.3922 C.ar      1 <0>        -0.0282
     18 Br1         2.7075   -3.4270   -2.2126 Br        1 <0>         0.0041
     19 F1          0.0615   -5.7467    1.6300 F         1 <0>        -0.1220
     20 F2          3.2195   -2.4491    2.8911 F         1 <0>        -0.1094
     21 S1          6.0875   -3.7555    0.3204 S.3       1 <0>        -0.7790
     22 H1         -0.9605    1.9041    0.0260 H         1 <0>         0.1207
     23 H2          1.1468    3.1733    0.0081 H         1 <0>         0.1250
     24 H3          3.3017    1.9880   -0.0199 H         1 <0>         0.1344
     25 H4          1.2175   -1.7605   -0.0192 H         1 <0>         0.1158
     26 H5         -0.9265   -0.5556    0.0079 H         1 <0>         0.1219
     27 H6          1.3848   -4.2558    3.3141 H         1 <0>         0.1620
     28 H7          0.8208   -5.2115   -0.8078 H         1 <0>         0.1594
@<TRIPOS>BOND
     1    1    6 ar
     2    1    2 ar
     3    1   22 1
     4    2    3 ar
     5    2   23 1
     6    3    4 ar
     7    3   24 1
     8    4    5 ar
     9    4    7 1
    10    5    6 ar
    11    5   25 1
    12    6   26 1
    13    7   11 1
    14    7    8 2
    15    8    9 1
    16    9   10 2
    17   10   21 1
    18   10   11 1
    19   11   12 1
    20   12   17 ar
    21   12   13 ar
    22   13   14 ar
    23   13   20 1
    24   14   15 ar
    25   14   27 1
    26   15   16 ar
    27   15   19 1
    28   16   17 ar
    29   16   28 1
    30   17   18 1
@<TRIPOS>MOLECULE
ZINC49546414
   34    36     0     0     0
SMALL
USER_CHARGES

@<TRIPOS>ATOM
      1 C1         -0.0187    1.5258    0.0104 C.3       1 <0>        -0.1473
      2 C2          0.0021   -0.0041    0.0020 C.3       1 <0>        -0.1154
      3 C3          0.7182   -0.4975   -1.2568 C.3       1 <0>        -0.1381
      4 C4          0.7390   -2.0273   -1.2652 C.3       1 <0>         0.2418
      5 H1         -0.2789   -2.4050   -1.1679 H         1 <0>         0.0988
      6 C5          1.5717   -2.5248   -0.1119 C.2       1 <0>        -0.2066
      7 C6          1.2077   -3.3209    0.9230 C.2       1 <0>        -0.1449
      8 C7          2.1510   -3.6533    1.8771 C.2       1 <0>        -0.1830
      9 C8          3.4122   -3.1733    1.7497 C.2       1 <0>        -0.2732
     10 S1          3.2957   -2.2248    0.2417 S.3       1 <0>         0.2437
     11 N1          1.3173   -2.5009   -2.5251 N.pl3     1 <0>        -0.4790
     12 C9          0.7105   -3.2942   -3.4735 C.2       1 <0>         0.1915
     13 N2          1.5845   -3.4764   -4.4388 N.2       1 <0>        -0.2592
     14 N3          2.6781   -2.8609   -4.1622 N.2       1 <0>        -0.3236
     15 C10         2.5702   -2.2429   -3.0081 C.2       1 <0>         0.3553
     16 S2          3.8110   -1.2668   -2.2256 S.3       1 <0>        -0.6841
     17 C11        -0.6569   -3.8357   -3.4170 C.2       1 <0>        -0.0443
     18 C12        -1.4093   -4.3909   -4.4212 C.2       1 <0>        -0.1386
     19 C13        -2.6793   -4.8339   -4.1274 C.2       1 <0>        -0.1447
     20 C14        -3.1474   -4.7089   -2.8586 C.2       1 <0>        -0.1901
     21 S3         -1.7657   -3.9485   -2.0222 S.3       1 <0>         0.0511
     22 H2          1.0039    1.9031    0.0027 H         1 <0>         0.0576
     23 H3         -0.5459    1.8868   -0.8726 H         1 <0>         0.0505
     24 H4         -0.5289    1.8773    0.9072 H         1 <0>         0.0518
     25 H5          0.5293   -0.3651    0.8851 H         1 <0>         0.0694
     26 H6         -1.0205   -0.3814    0.0098 H         1 <0>         0.0563
     27 H7          0.1910   -0.1364   -2.1398 H         1 <0>         0.0633
     28 H8          1.7408   -0.1202   -1.2645 H         1 <0>         0.1088
     29 H9          0.1956   -3.6897    1.0011 H         1 <0>         0.1113
     30 H10         1.8869   -4.2857    2.7118 H         1 <0>         0.1027
     31 H11         4.2668   -3.3279    2.3917 H         1 <0>         0.1550
     32 H12        -1.0133   -4.4782   -5.4222 H         1 <0>         0.1425
     33 H13        -3.2959   -5.2750   -4.8965 H         1 <0>         0.1355
     34 H14        -4.1072   -4.9992   -2.4576 H         1 <0>         0.1852
@<TRIPOS>BOND
     1    1    2 1
     2    1   22 1
     3    1   23 1
     4    1   24 1
     5    2    3 1
     6    2   25 1
     7    2   26 1
     8    3    4 1
     9    3   27 1
    10    3   28 1
    11    4    5 1
    12    4    6 1
    13    4   11 1
    14    6   10 1
    15    6    7 2
    16    7    8 1
    17    7   29 1
    18    8    9 2
    19    8   30 1
    20    9   10 1
    21    9   31 1
    22   11   15 1
    23   11   12 1
    24   12   17 1
    25   12   13 2
    26   13   14 1
    27   14   15 2
    28   15   16 1
    29   17   21 1
    30   17   18 2
    31   18   19 1
    32   18   32 1
    33   19   20 2
    34   19   33 1
    35   20   21 1
    36   20   34 1
@<TRIPOS>MOLECULE
ZINC16695945
   36    38     0     0     0
SMALL
USER_CHARGES

@<TRIPOS>ATOM
      1 C1         -0.3058    1.3415    0.7752 C.3       1 <0>         0.0239
      2 O1         -0.1907   -0.0593    0.5173 O.3       1 <0>        -0.3099
      3 C2         -1.2829   -0.6839    0.0080 C.ar      1 <0>         0.1686
      4 C3         -2.4405    0.0339   -0.2448 C.ar      1 <0>        -0.2134
      5 C4         -3.5518   -0.6028   -0.7637 C.ar      1 <0>        -0.0501
      6 C5         -3.5199   -1.9611   -1.0351 C.ar      1 <0>        -0.1542
      7 C6         -2.3782   -2.6925   -0.7907 C.ar      1 <0>        -0.0541
      8 C7         -1.2430   -2.0599   -0.2706 C.ar      1 <0>        -0.1292
      9 C8         -0.0205   -2.8308   -0.0129 C.2       1 <0>         0.0913
     10 C9         -0.0787   -4.1837    0.0829 C.2       1 <0>        -0.2339
     11 C10         1.0196   -5.1623    0.1934 C.2       1 <0>         0.5636
     12 O2          2.1850   -4.8114    0.2101 O.2       1 <0>        -0.4817
     13 N1          0.6807   -6.4379    0.2738 N.am      1 <0>        -0.6482
     14 C11        -0.6445   -6.8150    0.2532 C.2       1 <0>         0.3926
     15 N2         -1.1507   -8.0258    0.3231 N.2       1 <0>        -0.4700
     16 C12        -2.5072   -8.2035    0.2868 C.ar      1 <0>         0.1172
     17 C13        -3.3426   -7.3842    1.0494 C.ar      1 <0>        -0.1447
     18 C14        -4.7089   -7.5684    1.0079 C.ar      1 <0>        -0.0677
     19 C15        -5.2526   -8.5630    0.2129 C.ar      1 <0>        -0.0961
     20 C16        -4.4301   -9.3786   -0.5455 C.ar      1 <0>        -0.0740
     21 C17        -3.0626   -9.2013   -0.5176 C.ar      1 <0>        -0.0936
     22 Br1        -7.1269   -8.8090    0.1632 Br        1 <0>        -0.0443
     23 S1         -1.5067   -5.2576    0.1169 S.3       1 <0>        -0.0160
     24 H1          0.6352    1.7151    1.1790 H         1 <0>         0.1065
     25 H2         -0.5358    1.8642   -0.1532 H         1 <0>         0.0608
     26 H3         -1.1046    1.5136    1.4966 H         1 <0>         0.0606
     27 H4         -2.4746    1.0929   -0.0356 H         1 <0>         0.1372
     28 H5         -4.4513   -0.0378   -0.9587 H         1 <0>         0.1335
     29 H6         -4.3943   -2.4489   -1.4399 H         1 <0>         0.1342
     30 H7         -2.3579   -3.7511   -1.0038 H         1 <0>         0.1425
     31 H8          0.9251   -2.3216    0.1005 H         1 <0>         0.1633
     32 H9          1.3716   -7.1147    0.3478 H         1 <0>         0.4245
     33 H10        -2.9197   -6.6085    1.6705 H         1 <0>         0.1392
     34 H11        -5.3561   -6.9356    1.5971 H         1 <0>         0.1390
     35 H12        -4.8606  -10.1528   -1.1633 H         1 <0>         0.1413
     36 H13        -2.4223   -9.8353   -1.1131 H         1 <0>         0.1412
@<TRIPOS>BOND
     1    1    2 1
     2    1   24 1
     3    1   25 1
     4    1   26 1
     5    2    3 1
     6    3    8 ar
     7    3    4 ar
     8    4    5 ar
     9    4   27 1
    10    5    6 ar
    11    5   28 1
    12    6    7 ar
    13    6   29 1
    14    7    8 ar
    15    7   30 1
    16    8    9 1
    17    9   10 2
    18    9   31 1
    19   10   23 1
    20   10   11 1
    21   11   12 2
    22   11   13 am
    23   13   14 1
    24   13   32 1
    25   14   15 2
    26   14   23 1
    27   15   16 1
    28   16   21 ar
    29   16   17 ar
    30   17   18 ar
    31   17   33 1
    32   18   19 ar
    33   18   34 1
    34   19   20 ar
    35   19   22 1
    36   20   21 ar
    37   20   35 1
    38   21   36 1
@<TRIPOS>MOLECULE
ZINC04681810
   45    49     0     0     0
SMALL
USER_CHARGES

@<TRIPOS>ATOM
      1 C1         -0.0225    1.8097    0.0120 C.3       1 <0>        -0.1365
      2 S1          0.0021   -0.0041    0.0020 S.3       1 <0>        -0.1494
      3 C2         -1.7016   -0.4536    0.0159 C.ar      1 <0>        -0.1009
      4 C3         -2.6818    0.5315    0.0248 C.ar      1 <0>        -0.1316
      5 C4         -4.0159    0.1756    0.0357 C.ar      1 <0>        -0.0711
      6 C5         -4.3771   -1.1595    0.0377 C.ar      1 <0>        -0.0223
      7 C6         -3.4044   -2.1425    0.0293 C.ar      1 <0>        -0.0933
      8 C7         -2.0683   -1.7940    0.0122 C.ar      1 <0>        -0.1045
      9 C8         -5.8342   -1.5439    0.0496 C.3       1 <0>         0.1266
     10 H1         -6.4261   -0.6286    0.0552 H         1 <0>         0.0434
     11 C9         -6.1368   -2.2967   -1.2326 C.2       1 <0>        -0.3462
     12 C10        -6.6305   -3.5646   -1.1380 C.2       1 <0>         0.2422
     13 C11        -6.9390   -4.3467   -2.3945 C.3       1 <0>        -0.0773
     14 C12        -7.3541   -3.3855   -3.5096 C.3       1 <0>        -0.1088
     15 C13        -6.2137   -2.3924   -3.7563 C.3       1 <0>        -0.1631
     16 C14        -5.9048   -1.6781   -2.4661 C.2       1 <0>         0.3980
     17 O1         -5.4490   -0.5521   -2.4970 O.2       1 <0>        -0.4973
     18 N1         -6.8508   -4.1447    0.0390 N.2       1 <0>        -0.6141
     19 C15        -6.6308   -3.6104    1.2184 C.2       1 <0>         0.3130
     20 C16        -6.1150   -2.2977    1.3340 C.2       1 <0>        -0.4176
     21 C17        -5.9749   -1.9725    2.6394 C.2       1 <0>         0.3659
     22 C18        -6.4108   -3.1165    3.4717 C.ar      1 <0>        -0.0939
     23 C19        -6.8210   -4.1300    2.5999 C.ar      1 <0>        -0.0449
     24 C20        -7.2830   -5.3300    3.1071 C.ar      1 <0>        -0.0828
     25 C21        -7.3443   -5.5206    4.4833 C.ar      1 <0>        -0.1220
     26 C22        -6.9472   -4.5185    5.3435 C.ar      1 <0>        -0.1194
     27 C23        -6.4754   -3.3232    4.8409 C.ar      1 <0>        -0.0793
     28 O2         -5.5109   -0.7923    3.1087 O.3       1 <0>        -0.6043
     29 H2          1.0001    2.1870    0.0043 H         1 <0>         0.1017
     30 H3         -0.5497    2.1708   -0.8711 H         1 <0>         0.0803
     31 H4         -0.5327    2.1613    0.9088 H         1 <0>         0.0810
     32 H5         -2.4005    1.5743    0.0235 H         1 <0>         0.1117
     33 H6         -4.7782    0.9406    0.0430 H         1 <0>         0.1147
     34 H7         -3.6901   -3.1841    0.0313 H         1 <0>         0.1127
     35 H8         -1.3093   -2.5622    0.0004 H         1 <0>         0.1151
     36 H9         -6.0526   -4.9004   -2.7040 H         1 <0>         0.0807
     37 H10        -7.7518   -5.0455   -2.1965 H         1 <0>         0.0824
     38 H11        -7.5522   -3.9481   -4.4219 H         1 <0>         0.0711
     39 H12        -8.2514   -2.8441   -3.2099 H         1 <0>         0.0670
     40 H13        -5.3289   -2.9295   -4.0979 H         1 <0>         0.0882
     41 H14        -6.5176   -1.6674   -4.5114 H         1 <0>         0.0822
     42 H15        -7.5957   -6.1169    2.4368 H         1 <0>         0.1282
     43 H16        -7.7050   -6.4579    4.8804 H         1 <0>         0.1243
     44 H17        -6.9991   -4.6756    6.4108 H         1 <0>         0.1249
     45 H18        -6.1644   -2.5443    5.5214 H         1 <0>         0.1254
@<TRIPOS>BOND
     1    1    2 1
     2    1   29 1
     3    1   30 1
     4    1   31 1
     5    2    3 1
     6    3    8 ar
     7    3    4 ar
     8    4    5 ar
     9    4   32 1
    10    5    6 ar
    11    5   33 1
    12    6    7 ar
    13    6    9 1
    14    7    8 ar
    15    7   34 1
    16    8   35 1
    17    9   10 1
    18    9   20 1
    19    9   11 1
    20   11   16 1
    21   11   12 2
    22   12   13 1
    23   12   18 1
    24   13   14 1
    25   13   36 1
    26   13   37 1
    27   14   15 1
    28   14   38 1
    29   14   39 1
    30   15   16 1
    31   15   40 1
    32   15   41 1
    33   16   17 2
    34   18   19 2
    35   19   23 1
    36   19   20 1
    37   20   21 2
    38   21   22 1
    39   21   28 1
    40   22   27 ar
    41   22   23 ar
    42   23   24 ar
    43   24   25 ar
    44   24   42 1
    45   25   26 ar
    46   25   43 1
    47   26   27 ar
    48   26   44 1
    49   27   45 1
@<TRIPOS>MOLECULE
ZINC03032416
   46    49     0     0     0
SMALL
USER_CHARGES
2-bromo-6-[[3-(5-ethylbenzooxazol-2-yl)-4-hydroxy-phenyl]iminomethyl]-4-nitro-phenol
@<TRIPOS>ATOM
      1 C1         -0.7527    1.5927   -1.2315 C.3       1 <0>        -0.1489
      2 C2         -0.0127    1.0858    0.0080 C.3       1 <0>        -0.0804
      3 C3         -0.7181    1.5718    1.2479 C.ar      1 <0>        -0.0851
      4 C4         -0.3551    2.7837    1.8170 C.ar      1 <0>        -0.0946
      5 C5         -0.9945    3.2448    2.9492 C.ar      1 <0>        -0.0865
      6 C6         -2.0003    2.4891    3.5311 C.ar      1 <0>         0.0031
      7 C7         -2.3675    1.2591    2.9615 C.ar      1 <0>         0.0297
      8 C8         -1.7148    0.8075    1.8118 C.ar      1 <0>        -0.0620
      9 N1         -3.3621    0.7525    3.7349 N.2       1 <0>        -0.4553
     10 C9         -3.6043    1.5906    4.7115 C.2       1 <0>         0.3063
     11 O1         -2.7904    2.6590    4.6147 O.3       1 <0>        -0.2061
     12 C10        -4.6210    1.3933    5.7641 C.ar      1 <0>        -0.0516
     13 C11        -4.7902    2.3522    6.7610 C.ar      1 <0>        -0.0611
     14 C12        -5.7555    2.1609    7.7476 C.ar      1 <0>         0.1011
     15 C13        -6.5417    1.0042    7.7407 C.ar      1 <0>        -0.1248
     16 C14        -6.3695    0.0542    6.7570 C.ar      1 <0>        -0.1291
     17 C15        -5.4150    0.2382    5.7671 C.ar      1 <0>         0.1352
     18 O2         -5.2497   -0.7012    4.8011 O.3       1 <0>        -0.4747
     19 N2         -5.9300    3.1017    8.7265 N.2       1 <0>        -0.4548
     20 C16        -7.1322    3.4753    9.0644 C.2       1 <0>         0.2347
     21 C17        -7.3196    4.4861   10.1160 C.ar      1 <0>        -0.2159
     22 C18        -8.6077    4.8901   10.4820 C.ar      1 <0>         0.0391
     23 C19        -8.7763    5.8376   11.4681 C.ar      1 <0>        -0.1765
     24 C20        -7.6755    6.3932   12.0994 C.ar      1 <0>         0.0239
     25 C21        -6.3968    6.0035   11.7480 C.ar      1 <0>        -0.2069
     26 C22        -6.2078    5.0467   10.7622 C.ar      1 <0>         0.3353
     27 Br1        -4.9033    6.7708   12.6177 Br        1 <0>        -0.0579
     28 N3        -10.1400    6.2642   11.8543 N.pl3     1 <0>         0.0671
     29 O3        -11.1099    5.7779   11.3009 O.2       1 <0>        -0.2149
     30 O4        -10.2923    7.1016   12.7256 O.3       1 <0>        -0.2147
     31 H1         -0.2425    1.2411   -2.1283 H         1 <0>         0.0588
     32 H2         -1.7753    1.2154   -1.2238 H         1 <0>         0.0568
     33 H3         -0.7675    2.6825   -1.2255 H         1 <0>         0.0566
     34 H4          0.0021   -0.0041    0.0020 H         1 <0>         0.0742
     35 H5          1.0099    1.4631    0.0003 H         1 <0>         0.0751
     36 H6          0.4313    3.3724    1.3682 H         1 <0>         0.1387
     37 H7         -0.7090    4.1914    3.3840 H         1 <0>         0.1364
     38 H8         -1.9906   -0.1374    1.3675 H         1 <0>         0.1344
     39 H9         -4.1784    3.2421    6.7665 H         1 <0>         0.1419
     40 H10        -7.2859    0.8547    8.5090 H         1 <0>         0.1327
     41 H11        -6.9796   -0.8369    6.7571 H         1 <0>         0.1379
     42 H12        -4.6022   -1.3842    5.0234 H         1 <0>         0.3889
     43 H13        -7.9905    3.0426    8.5721 H         1 <0>         0.0970
     44 H14        -9.4690    4.4603    9.9921 H         1 <0>         0.1369
     45 H15        -7.8173    7.1353   12.8712 H         1 <0>         0.1360
     46 O5         -4.9529    4.6588   10.4199 O.3       1 <0>        -0.5762
@<TRIPOS>BOND
     1    1    2 1
     2    1   31 1
     3    1   32 1
     4    1   33 1
     5    2    3 1
     6    2   34 1
     7    2   35 1
     8    3    8 ar
     9    3    4 ar
    10    4    5 ar
    11    4   36 1
    12    5    6 ar
    13    5   37 1
    14    6   11 1
    15    6    7 ar
    16    7    8 ar
    17    7    9 1
    18    8   38 1
    19    9   10 2
    20   10   11 1
    21   10   12 1
    22   12   17 ar
    23   12   13 ar
    24   13   14 ar
    25   13   39 1
    26   14   15 ar
    27   14   19 1
    28   15   16 ar
    29   15   40 1
    30   16   17 ar
    31   16   41 1
    32   17   18 1
    33   18   42 1
    34   19   20 2
    35   20   21 1
    36   20   43 1
    37   21   26 ar
    38   21   22 ar
    39   22   23 ar
    40   22   44 1
    41   23   24 ar
    42   23   28 1
    43   24   25 ar
    44   24   45 1
    45   25   26 ar
    46   25   27 1
    47   26   46 1
    48   28   29 2
    49   28   30 1
@<TRIPOS>MOLECULE
ZINC00728522
   66    70     0     0     0
SMALL
USER_CHARGES
cyclohexyl (4S,7S)-4-(4-hydroxy-3-nitro-phenyl)-2-methyl-5-oxo-7-phenyl-4,6,7,8-tetrahydro-1H-quinoline-3-carboxylate
@<TRIPOS>ATOM
      1 C1          3.6854    5.0865   -2.4965 C.3       1 <0>        -0.2249
      2 C2          3.0559    4.5898   -1.2205 C.2       1 <0>         0.2390
      3 C3          1.8033    4.1023   -1.2396 C.2       1 <0>        -0.2528
      4 C4          1.1470    3.5928    0.0100 C.3       1 <0>         0.1007
      5 H1          0.1110    3.9621    0.0309 H         1 <0>         0.0831
      6 C5          1.8629    4.0927    1.2394 C.2       1 <0>        -0.2535
      7 C6          3.1196    4.5785    1.1558 C.2       1 <0>         0.1954
      8 N1          3.7626    4.6381   -0.0515 N.pl3     1 <0>        -0.6453
      9 C7          3.8486    5.0630    2.3846 C.3       1 <0>        -0.0849
     10 C8          2.8424    5.6281    3.3895 C.3       1 <0>        -0.0354
     11 H2          2.3288    6.5044    2.9672 H         1 <0>         0.0904
     12 C9          1.8327    4.5294    3.7373 C.3       1 <0>        -0.1599
     13 C10         1.1859    4.0398    2.4705 C.2       1 <0>         0.3986
     14 O1          0.0578    3.5903    2.5119 O.2       1 <0>        -0.4526
     15 C11         3.5647    6.0655    4.6377 C.ar      1 <0>        -0.0774
     16 C12         4.2846    5.1463    5.3777 C.ar      1 <0>        -0.1129
     17 C13         4.9504    5.5483    6.5205 C.ar      1 <0>        -0.1172
     18 C14         4.8891    6.8678    6.9281 C.ar      1 <0>        -0.1229
     19 C15         4.1653    7.7860    6.1907 C.ar      1 <0>        -0.1192
     20 C16         3.5026    7.3848    5.0458 C.ar      1 <0>        -0.1129
     21 C17         1.1703    2.0860    0.0021 C.ar      1 <0>        -0.1995
     22 C18         2.3791    1.4145   -0.0132 C.ar      1 <0>        -0.0242
     23 C19         2.4032    0.0335   -0.0208 C.ar      1 <0>        -0.2504
     24 C20         1.2133   -0.6800   -0.0132 C.ar      1 <0>         0.3097
     25 C21         0.0021   -0.0041    0.0020 C.ar      1 <0>        -0.1992
     26 C22        -0.0167    1.3774    0.0096 C.ar      1 <0>         0.0263
     27 N2         -1.2691   -0.7621    0.0106 N.pl3     1 <0>         0.0709
     28 O2         -2.3323   -0.1680    0.0244 O.2       1 <0>        -0.2662
     29 O3         -1.2520   -1.9799    0.0039 O.3       1 <0>        -0.1757
     30 O4          1.2343   -2.0388   -0.0212 O.3       1 <0>        -0.6540
     31 C23         1.0903    4.0690   -2.4608 C.2       1 <0>         0.5375
     32 O5          1.6115    4.4792   -3.4809 O.2       1 <0>        -0.5239
     33 O6         -0.1679    3.5823   -2.4945 O.3       1 <0>        -0.3301
     34 C24        -0.8284    3.5788   -3.7617 C.3       1 <0>         0.0900
     35 C25        -1.5818    4.8973   -3.9477 C.3       1 <0>        -0.1346
     36 C26        -2.2890    4.8936   -5.3045 C.3       1 <0>        -0.1138
     37 C27        -3.2789    3.7283   -5.3604 C.3       1 <0>        -0.1233
     38 C28        -2.5255    2.4098   -5.1744 C.3       1 <0>        -0.1147
     39 C29        -1.8183    2.4135   -3.8176 C.3       1 <0>        -0.1189
     40 H3          2.9730    4.9696   -3.3265 H         1 <0>         0.1887
     41 H4          4.5939    4.5036   -2.7082 H         1 <0>         0.0707
     42 H5          3.9487    6.1488   -2.3861 H         1 <0>         0.0701
     43 H6          4.8589    4.7257   -0.0748 H         1 <0>         0.4393
     44 H7          4.3913    4.2236    2.8437 H         1 <0>         0.0987
     45 H8          4.5628    5.8500    2.1008 H         1 <0>         0.0896
     46 H9          2.3530    3.6971    4.2338 H         1 <0>         0.1015
     47 H10         1.0654    4.9368    4.4121 H         1 <0>         0.0969
     48 H11         4.3294    4.1146    5.0613 H         1 <0>         0.1242
     49 H12         5.5157    4.8308    7.0967 H         1 <0>         0.1221
     50 H13         5.4065    7.1812    7.8228 H         1 <0>         0.1200
     51 H14         4.1171    8.8168    6.5093 H         1 <0>         0.1210
     52 H15         2.9368    8.1021    4.4699 H         1 <0>         0.1222
     53 H16         3.3051    1.9703   -0.0194 H         1 <0>         0.0971
     54 H17         3.3475   -0.4905   -0.0330 H         1 <0>         0.1116
     55 H18        -0.9595    1.9042    0.0169 H         1 <0>         0.1207
     56 H19        -0.0340    3.4638   -4.5139 H         1 <0>         0.0821
     57 H20        -2.3267    5.0101   -3.1462 H         1 <0>         0.0734
     58 H21        -0.8701    5.7351   -3.9074 H         1 <0>         0.0656
     59 H22        -2.8307    5.8416   -5.4382 H         1 <0>         0.0649
     60 H23        -1.5441    4.7807   -6.1060 H         1 <0>         0.0635
     61 H24        -4.0238    3.8412   -4.5589 H         1 <0>         0.0657
     62 H25        -3.7874    3.7256   -6.3358 H         1 <0>         0.0628
     63 H26        -3.2372    1.5720   -5.2147 H         1 <0>         0.0713
     64 H27        -1.7806    2.2969   -5.9759 H         1 <0>         0.0629
     65 H28        -1.2766    1.4655   -3.6838 H         1 <0>         0.0732
     66 H29        -2.5632    2.5264   -3.0161 H         1 <0>         0.0790
@<TRIPOS>BOND
     1    1    2 1
     2    1   40 1
     3    1   41 1
     4    1   42 1
     5    2    8 1
     6    2    3 2
     7    3    4 1
     8    3   31 1
     9    4    5 1
    10    4    6 1
    11    4   21 1
    12    6   13 1
    13    6    7 2
    14    7    8 1
    15    7    9 1
    16    8   43 1
    17    9   10 1
    18    9   44 1
    19    9   45 1
    20   10   11 1
    21   10   12 1
    22   10   15 1
    23   12   13 1
    24   12   46 1
    25   12   47 1
    26   13   14 2
    27   15   20 ar
    28   15   16 ar
    29   16   17 ar
    30   16   48 1
    31   17   18 ar
    32   17   49 1
    33   18   19 ar
    34   18   50 1
    35   19   20 ar
    36   19   51 1
    37   20   52 1
    38   21   26 ar
    39   21   22 ar
    40   22   23 ar
    41   22   53 1
    42   23   24 ar
    43   23   54 1
    44   24   25 ar
    45   24   30 1
    46   25   26 ar
    47   25   27 1
    48   26   55 1
    49   27   28 2
    50   27   29 1
    51   31   32 2
    52   31   33 1
    53   33   34 1
    54   34   39 1
    55   34   35 1
    56   34   56 1
    57   35   36 1
    58   35   57 1
    59   35   58 1
    60   36   37 1
    61   36   59 1
    62   36   60 1
    63   37   38 1
    64   37   61 1
    65   37   62 1
    66   38   39 1
    67   38   63 1
    68   38   64 1
    69   39   65 1
    70   39   66 1
@<TRIPOS>MOLECULE
ZINC36484294
   63    65     0     0     0
SMALL
USER_CHARGES

@<TRIPOS>ATOM
      1 C1         -2.2324    0.4806   -2.0891 C.3       1 <0>        -0.1145
      2 C2         -1.7336   -0.8496   -1.5862 C.ar      1 <0>        -0.0714
      3 C3         -2.6181   -1.8973   -1.4087 C.ar      1 <0>        -0.1242
      4 C4         -2.1606   -3.1173   -0.9475 C.ar      1 <0>        -0.0903
      5 C5         -0.8185   -3.2900   -0.6641 C.ar      1 <0>        -0.1106
      6 C6          0.0659   -2.2429   -0.8424 C.ar      1 <0>        -0.0497
      7 C7         -0.3911   -1.0238   -1.3078 C.ar      1 <0>        -0.1224
      8 C8          1.5287   -2.4311   -0.5330 C.3       1 <0>        -0.1283
      9 C9         -0.3198   -4.6199   -0.1602 C.3       1 <0>         0.1664
     10 H1          0.3586   -4.4598    0.6777 H         1 <0>         0.1356
     11 C10        -1.4890   -5.4559    0.2927 C.2       1 <0>         0.5138
     12 O1         -1.7718   -6.4750   -0.3008 O.2       1 <0>        -0.5074
     13 N1         -2.2203   -5.0711    1.3574 N.am      1 <0>        -0.7239
     14 C11        -3.3093   -5.9216    1.8440 C.3       1 <0>         0.1716
     15 C12        -2.7477   -7.2843    2.2545 C.3       1 <0>        -0.1641
     16 C13        -3.9732   -5.2586    3.0526 C.3       1 <0>        -0.1540
     17 C14        -4.3445   -6.1102    0.7333 C.3       1 <0>        -0.1640
     18 N2          0.3896   -5.3152   -1.2370 N.am      1 <0>        -0.5533
     19 C15        -0.2718   -5.6109   -2.4332 C.ar      1 <0>         0.1771
     20 C16        -0.3918   -6.9292   -2.8546 C.ar      1 <0>        -0.0876
     21 C17        -1.0458   -7.2187   -4.0359 C.ar      1 <0>        -0.0998
     22 C18        -1.5814   -6.1979   -4.7999 C.ar      1 <0>        -0.1070
     23 C19        -1.4638   -4.8835   -4.3834 C.ar      1 <0>        -0.0123
     24 C20        -0.8148   -4.5880   -3.1991 C.ar      1 <0>        -0.1331
     25 Cl1        -2.1376   -3.6053   -5.3456 Cl        1 <0>        -0.0761
     26 C21         1.6797   -5.6699   -1.0748 C.2       1 <0>         0.5914
     27 O2          2.2561   -5.4090   -0.0364 O.2       1 <0>        -0.5025
     28 C22         2.3926   -6.3744   -2.1571 C.ar      1 <0>        -0.2870
     29 C23         2.0372   -6.1566   -3.4906 C.ar      1 <0>         0.0329
     30 C24         2.7070   -6.8179   -4.4969 C.ar      1 <0>        -0.1856
     31 C25         3.7323   -7.6988   -4.1927 C.ar      1 <0>        -0.0079
     32 C26         4.0936   -7.9234   -2.8793 C.ar      1 <0>        -0.2392
     33 C27         3.4341   -7.2619   -1.8539 C.ar      1 <0>         0.3352
     34 O3          3.7918   -7.4773   -0.5632 O.3       1 <0>        -0.6343
     35 N3          2.3292   -6.5866   -5.9092 N.pl3     1 <0>         0.0722
     36 O4          1.5006   -5.7502   -6.1841 O.2       1 <0>        -0.2061
     37 O5          2.8491   -7.2340   -6.7879 O.3       1 <0>        -0.2246
     38 H2         -2.1916    0.4958   -3.1782 H         1 <0>         0.0714
     39 H3         -3.2613    0.6301   -1.7619 H         1 <0>         0.0649
     40 H4         -1.6050    1.2780   -1.6908 H         1 <0>         0.0652
     41 H5         -3.6665   -1.7624   -1.6301 H         1 <0>         0.1207
     42 H6         -2.8516   -3.9355   -0.8081 H         1 <0>         0.1225
     43 H7          0.3006   -0.2067   -1.4507 H         1 <0>         0.1234
     44 H8          2.0545   -2.7392   -1.4367 H         1 <0>         0.0728
     45 H9          1.9473   -1.4919   -0.1714 H         1 <0>         0.0664
     46 H10         1.6423   -3.1983    0.2329 H         1 <0>         0.0826
     47 H11        -2.0256   -4.2309    1.8014 H         1 <0>         0.3990
     48 H12        -2.0102   -7.1499    3.0459 H         1 <0>         0.0544
     49 H13        -3.5579   -7.9171    2.6166 H         1 <0>         0.0608
     50 H14        -2.2748   -7.7567    1.3935 H         1 <0>         0.0776
     51 H15        -4.3733   -4.2878    2.7602 H         1 <0>         0.0612
     52 H16        -4.7834   -5.8914    3.4147 H         1 <0>         0.0715
     53 H17        -3.2357   -5.1242    3.8439 H         1 <0>         0.0615
     54 H18        -3.8716   -6.5826   -0.1277 H         1 <0>         0.0820
     55 H19        -5.1547   -6.7431    1.0954 H         1 <0>         0.0596
     56 H20        -4.7446   -5.1394    0.4409 H         1 <0>         0.0521
     57 H21         0.0264   -7.7271   -2.2589 H         1 <0>         0.1281
     58 H22        -1.1389   -8.2435   -4.3637 H         1 <0>         0.1287
     59 H23        -2.0920   -6.4270   -5.7235 H         1 <0>         0.1295
     60 H24        -0.7267   -3.5625   -2.8721 H         1 <0>         0.1387
     61 H25         1.2385   -5.4711   -3.7324 H         1 <0>         0.1381
     62 H26         4.2516   -8.2132   -4.9878 H         1 <0>         0.1267
     63 H27         4.8936   -8.6118   -2.6502 H         1 <0>         0.1254
@<TRIPOS>BOND
     1    1    2 1
     2    1   38 1
     3    1   39 1
     4    1   40 1
     5    2    7 ar
     6    2    3 ar
     7    3    4 ar
     8    3   41 1
     9    4    5 ar
    10    4   42 1
    11    5    6 ar
    12    5    9 1
    13    6    7 ar
    14    6    8 1
    15    7   43 1
    16    8   44 1
    17    8   45 1
    18    8   46 1
    19    9   10 1
    20    9   11 1
    21    9   18 1
    22   11   12 2
    23   11   13 am
    24   13   14 1
    25   13   47 1
    26   14   15 1
    27   14   16 1
    28   14   17 1
    29   15   48 1
    30   15   49 1
    31   15   50 1
    32   16   51 1
    33   16   52 1
    34   16   53 1
    35   17   54 1
    36   17   55 1
    37   17   56 1
    38   18   19 1
    39   18   26 am
    40   19   24 ar
    41   19   20 ar
    42   20   21 ar
    43   20   57 1
    44   21   22 ar
    45   21   58 1
    46   22   23 ar
    47   22   59 1
    48   23   24 ar
    49   23   25 1
    50   24   60 1
    51   26   27 2
    52   26   28 1
    53   28   33 ar
    54   28   29 ar
    55   29   30 ar
    56   29   61 1
    57   30   31 ar
    58   30   35 1
    59   31   32 ar
    60   31   62 1
    61   32   33 ar
    62   32   63 1
    63   33   34 1
    64   35   36 2
    65   35   37 1
@<TRIPOS>MOLECULE
ZINC22890517
   55    59     0     0     0
SMALL
USER_CHARGES

@<TRIPOS>ATOM
      1 C1          0.0713    1.5119   -1.1210 C.3       1 <0>        -0.0878
      2 C2          0.0639    0.0204   -0.9056 C.2       1 <0>         0.1025
      3 C3         -1.0907   -0.6891   -0.8980 C.2       1 <0>        -0.1156
      4 S1         -0.4999   -2.3468   -0.6099 S.3       1 <0>         0.2435
      5 C4          1.1468   -2.0191   -0.5218 C.2       1 <0>         0.3488
      6 N1          1.2120   -0.6743   -0.7161 N.pl3     1 <0>        -0.6018
      7 N2          2.1500   -2.8741   -0.3158 N.2       1 <0>        -0.6138
      8 C5          3.4008   -2.4325   -0.2763 C.2       1 <0>         0.4698
      9 O1          3.6326   -1.2479   -0.4279 O.2       1 <0>        -0.5581
     10 C6          4.5339   -3.3983   -0.0435 C.3       1 <0>         0.1041
     11 N3          5.8047   -2.6694   -0.0438 N.pl3     1 <0>        -0.4619
     12 C7          6.5307   -2.3435   -1.1680 C.ar      1 <0>         0.1179
     13 C8          6.3345   -2.5654   -2.5273 C.ar      1 <0>        -0.1260
     14 C9          7.2619   -2.1067   -3.4371 C.ar      1 <0>        -0.0985
     15 C10         8.3935   -1.4235   -3.0122 C.ar      1 <0>        -0.1484
     16 C11         8.6072   -1.1939   -1.6827 C.ar      1 <0>        -0.0704
     17 C12         7.6795   -1.6502   -0.7417 C.ar      1 <0>        -0.1059
     18 C13         7.5980   -1.5796    0.7162 C.2       1 <0>        -0.1809
     19 C14         6.4492   -2.2025    1.0785 C.2       1 <0>         0.1255
     20 C15         5.9653   -2.3592    2.4672 C.ar      1 <0>        -0.0279
     21 C16         6.8667   -2.3206    3.5319 C.ar      1 <0>        -0.0969
     22 C17         6.4088   -2.4675    4.8250 C.ar      1 <0>        -0.1154
     23 C18         5.0594   -2.6532    5.0674 C.ar      1 <0>        -0.1153
     24 C19         4.1606   -2.6925    4.0163 C.ar      1 <0>        -0.1120
     25 C20         4.6048   -2.5406    2.7189 C.ar      1 <0>        -0.1207
     26 C21        -2.4736   -0.2146   -1.0798 C.2       1 <0>         0.1886
     27 N4         -2.8525    1.0254   -1.2955 N.2       1 <0>        -0.2569
     28 N5         -4.1315    1.0803   -1.4068 N.2       1 <0>        -0.3342
     29 C22        -4.6493   -0.1188   -1.2694 C.2       1 <0>         0.3889
     30 S2         -6.3603   -0.5331   -1.3455 S.3       1 <0>        -0.7846
     31 N6         -3.6134   -0.9868   -1.0620 N.pl3     1 <0>        -0.4850
     32 C23        -3.6985   -2.4354   -0.8604 C.3       1 <0>         0.1496
     33 C24        -3.8425   -2.7303    0.6104 C.2       1 <0>        -0.1810
     34 C25        -4.8479   -3.4529    1.0382 C.2       1 <0>        -0.1459
     35 H1          1.0977    1.8778   -1.0941 H         1 <0>         0.0664
     36 H2         -0.3709    1.7412   -2.0905 H         1 <0>         0.1004
     37 H3         -0.5075    1.9955   -0.3341 H         1 <0>         0.0998
     38 H4          4.3986   -3.8922    0.9187 H         1 <0>         0.1264
     39 H5          4.5434   -4.1454   -0.8372 H         1 <0>         0.1181
     40 H6          5.4579   -3.0961   -2.8684 H         1 <0>         0.1147
     41 H7          7.1073   -2.2807   -4.4917 H         1 <0>         0.1235
     42 H8          9.1107   -1.0710   -3.7387 H         1 <0>         0.1211
     43 H9          9.4899   -0.6620   -1.3597 H         1 <0>         0.1213
     44 H10         8.3142   -1.1158    1.3784 H         1 <0>         0.1486
     45 H11         7.9204   -2.1764    3.3439 H         1 <0>         0.1297
     46 H12         7.1053   -2.4378    5.6499 H         1 <0>         0.1277
     47 H13         4.7061   -2.7684    6.0814 H         1 <0>         0.1251
     48 H14         3.1085   -2.8381    4.2121 H         1 <0>         0.1260
     49 H15         3.9016   -2.5666    1.8996 H         1 <0>         0.1214
     50 H16        -4.5637   -2.8264   -1.3958 H         1 <0>         0.1111
     51 H17        -2.7926   -2.9087   -1.2389 H         1 <0>         0.0790
     52 H18        -3.1167   -2.3459    1.3118 H         1 <0>         0.1074
     53 H19        -5.5736   -3.8373    0.3369 H         1 <0>         0.1048
     54 H20        -4.9510   -3.6643    2.0923 H         1 <0>         0.0998
     55 H21         2.0682   -0.2184   -0.7159 H         1 <0>         0.4332
@<TRIPOS>BOND
     1    1    2 1
     2    1   35 1
     3    1   36 1
     4    1   37 1
     5    2    6 1
     6    2    3 2
     7    3    4 1
     8    3   26 1
     9    4    5 1
    10    5    6 1
    11    5    7 2
    12    6   55 1
    13    7    8 1
    14    8    9 2
    15    8   10 1
    16   10   11 1
    17   10   38 1
    18   10   39 1
    19   11   19 1
    20   11   12 1
    21   12   17 ar
    22   12   13 ar
    23   13   14 ar
    24   13   40 1
    25   14   15 ar
    26   14   41 1
    27   15   16 ar
    28   15   42 1
    29   16   17 ar
    30   16   43 1
    31   17   18 1
    32   18   19 2
    33   18   44 1
    34   19   20 1
    35   20   25 ar
    36   20   21 ar
    37   21   22 ar
    38   21   45 1
    39   22   23 ar
    40   22   46 1
    41   23   24 ar
    42   23   47 1
    43   24   25 ar
    44   24   48 1
    45   25   49 1
    46   26   31 1
    47   26   27 2
    48   27   28 1
    49   28   29 2
    50   29   30 1
    51   29   31 1
    52   31   32 1
    53   32   33 1
    54   32   50 1
    55   32   51 1
    56   33   34 2
    57   33   52 1
    58   34   53 1
    59   34   54 1
@<TRIPOS>MOLECULE
ZINC17138400
   49    51     0     0     0
SMALL
USER_CHARGES

@<TRIPOS>ATOM
      1 C1          0.4265    2.2359    0.6783 C.3       1 <0>        -0.0808
      2 C2         -0.5164    2.4096    1.8410 C.ar      1 <0>        -0.1356
      3 C3         -1.1919    3.6025    2.0108 C.ar      1 <0>        -0.0878
      4 C4         -2.0575    3.7631    3.0767 C.ar      1 <0>        -0.1924
      5 C5         -2.2499    2.7297    3.9774 C.ar      1 <0>        -0.0069
      6 C6         -1.5768    1.5340    3.8127 C.ar      1 <0>        -0.1678
      7 C7         -0.7111    1.3686    2.7393 C.ar      1 <0>         0.2274
      8 N1         -0.0326    0.1577    2.5664 N.2       1 <0>        -0.6012
      9 C8          0.2017   -0.6531    3.6401 C.2       1 <0>         0.6492
     10 N2          0.3753   -0.1267    4.8409 N.2       1 <0>        -0.7152
     11 C9          0.8434   -0.8838    5.8435 C.2       1 <0>         0.6685
     12 O1          1.2134   -2.0235    5.6245 O.2       1 <0>        -0.6426
     13 N3          0.9046   -0.3839    7.0936 N.am      1 <0>        -0.6648
     14 C10         1.4462   -1.1535    8.1292 C.ar      1 <0>         0.2073
     15 C11         2.4741   -2.0497    7.8655 C.ar      1 <0>        -0.1106
     16 C12         3.0076   -2.8081    8.8890 C.ar      1 <0>        -0.0772
     17 C13         2.5189   -2.6764   10.1769 C.ar      1 <0>        -0.0637
     18 C14         1.4942   -1.7838   10.4431 C.ar      1 <0>        -0.0055
     19 C15         0.9609   -1.0184    9.4229 C.ar      1 <0>        -0.1459
     20 Cl1         0.8835   -1.6211   12.0600 Cl        1 <0>        -0.0571
     21 Cl2         3.1911   -3.6321   11.4608 Cl        1 <0>        -0.0645
     22 N4          0.2569   -2.0102    3.4735 N.pl3     1 <0>        -0.6212
     23 C16         0.2016   -2.5559    2.1980 C.ar      1 <0>         0.5558
     24 N5          0.2081   -1.7480    1.1487 N.ar      1 <0>        -0.4751
     25 C17         0.1568   -2.2350   -0.0801 C.ar      1 <0>         0.1977
     26 C18         0.0958   -3.6079   -0.2611 C.ar      1 <0>        -0.2906
     27 C19         0.0908   -4.4240    0.8593 C.ar      1 <0>         0.1966
     28 N6          0.1491   -3.8718    2.0598 N.ar      1 <0>        -0.5702
     29 C20         0.0254   -5.9223    0.7112 C.3       1 <0>        -0.1002
     30 C21         0.1641   -1.3085   -1.2686 C.3       1 <0>        -0.1004
     31 Cl3        -3.3369    2.9361    5.3151 Cl        1 <0>        -0.1109
     32 H1         -0.1212    1.8420   -0.1778 H         1 <0>         0.0513
     33 H2          0.8636    3.1998    0.4179 H         1 <0>         0.0395
     34 H3          1.2189    1.5401    0.9540 H         1 <0>         0.0705
     35 H4         -1.0434    4.4108    1.3101 H         1 <0>         0.1118
     36 H5         -2.5844    4.6968    3.2071 H         1 <0>         0.1097
     37 H6         -1.7266    0.7279    4.5156 H         1 <0>         0.1215
     38 H7          0.5733    0.5094    7.2754 H         1 <0>         0.4136
     39 H8          2.8557   -2.1537    6.8605 H         1 <0>         0.1548
     40 H9          3.8068   -3.5049    8.6839 H         1 <0>         0.1406
     41 H10         0.1645   -0.3193    9.6312 H         1 <0>         0.1423
     42 H11         0.3348   -2.5910    4.2465 H         1 <0>         0.4322
     43 H12         0.0527   -4.0323   -1.2533 H         1 <0>         0.1334
     44 H13         1.0361   -6.3257    0.6493 H         1 <0>         0.0788
     45 H14        -0.4846   -6.3508    1.5739 H         1 <0>         0.0766
     46 H15        -0.5225   -6.1741   -0.1968 H         1 <0>         0.0755
     47 H16         1.1854   -1.1896   -1.6303 H         1 <0>         0.0773
     48 H17        -0.4553   -1.7289   -2.0608 H         1 <0>         0.0709
     49 H18        -0.2325   -0.3368   -0.9743 H         1 <0>         0.0855
@<TRIPOS>BOND
     1    1    2 1
     2    1   32 1
     3    1   33 1
     4    1   34 1
     5    2    7 ar
     6    2    3 ar
     7    3    4 ar
     8    3   35 1
     9    4    5 ar
    10    4   36 1
    11    5    6 ar
    12    5   31 1
    13    6    7 ar
    14    6   37 1
    15    7    8 1
    16    8    9 1
    17    9   10 2
    18    9   22 1
    19   10   11 1
    20   11   12 2
    21   11   13 am
    22   13   14 1
    23   13   38 1
    24   14   19 ar
    25   14   15 ar
    26   15   16 ar
    27   15   39 1
    28   16   17 ar
    29   16   40 1
    30   17   18 ar
    31   17   21 1
    32   18   19 ar
    33   18   20 1
    34   19   41 1
    35   22   23 1
    36   22   42 1
    37   23   28 ar
    38   23   24 ar
    39   24   25 ar
    40   25   26 ar
    41   25   30 1
    42   26   27 ar
    43   26   43 1
    44   27   28 ar
    45   27   29 1
    46   29   44 1
    47   29   45 1
    48   29   46 1
    49   30   47 1
    50   30   48 1
    51   30   49 1
@<TRIPOS>MOLECULE
ZINC63933707
   51    54     0     0     0
SMALL
USER_CHARGES

@<TRIPOS>ATOM
      1 C1          0.2807    1.4144    0.5365 C.3       1 <0>        -0.1509
      2 C2          0.2448   -0.1121    0.4391 C.3       1 <0>        -0.1242
      3 C3         -1.2064   -0.5814    0.3178 C.3       1 <0>        -0.1142
      4 C4         -1.2423   -2.1079    0.2203 C.3       1 <0>        -0.1317
      5 C5         -2.6935   -2.5772    0.0990 C.3       1 <0>         0.1164
      6 N1         -2.7279   -4.0388    0.0058 N.pl3     1 <0>        -0.5568
      7 C6         -2.6620   -4.6618   -1.2435 C.ar      1 <0>         0.2077
      8 C7         -2.9333   -3.9325   -2.3947 C.ar      1 <0>        -0.1873
      9 C8         -2.8732   -4.5467   -3.6298 C.ar      1 <0>        -0.0898
     10 C9         -2.5433   -5.8869   -3.7195 C.ar      1 <0>        -0.1768
     11 C10        -2.2713   -6.6136   -2.5761 C.ar      1 <0>        -0.0624
     12 C11        -2.3277   -6.0052   -1.3348 C.ar      1 <0>        -0.1199
     13 C12        -2.0192   -6.8076   -0.1009 C.3       1 <0>         0.2525
     14 H1         -0.9413   -6.9529   -0.0297 H         1 <0>         0.0312
     15 C13        -2.5039   -6.1105    1.1355 C.2       1 <0>        -0.4885
     16 C14        -2.8190   -4.7971    1.1442 C.2       1 <0>         0.5146
     17 O1         -3.2351   -4.2229    2.2940 O.3       1 <0>        -0.6457
     18 C15        -2.6309   -6.8518    2.3318 C.2       1 <0>         0.5339
     19 O2         -3.1243   -6.3336    3.3218 O.2       1 <0>        -0.5660
     20 N2         -2.2087   -8.1274    2.3803 N.2       1 <0>        -0.5531
     21 C16        -2.3279   -8.8226    3.5022 C.2       1 <0>         0.4161
     22 N3         -2.8505   -8.4299    4.6996 N.pl3     1 <0>        -0.6398
     23 H2         -3.1976   -7.5301    4.8037 H         1 <0>         0.4359
     24 C17        -2.8876   -9.3114    5.7669 C.ar      1 <0>         0.1662
     25 C18        -2.3645  -10.5900    5.5262 C.ar      1 <0>        -0.1530
     26 S1         -1.8523  -10.5124    3.8269 S.3       1 <0>         0.1017
     27 C19        -2.3331  -11.5709    6.4886 C.ar      1 <0>        -0.0197
     28 C20        -2.8331  -11.3065    7.7530 C.ar      1 <0>        -0.0496
     29 C21        -3.3568  -10.0526    8.0220 C.ar      1 <0>        -0.0602
     30 C22        -3.3885   -9.0714    7.0587 C.ar      1 <0>        -0.0476
     31 Cl1        -4.0548   -7.5152    7.4432 Cl        1 <0>        -0.0420
     32 Cl2        -2.8044  -12.5304    8.9839 Cl        1 <0>        -0.0494
     33 O3         -2.6578   -8.0821   -0.1994 O.3       1 <0>        -0.5800
     34 H3          1.3146    1.7487    0.6229 H         1 <0>         0.0502
     35 H4         -0.1672    1.8462   -0.3585 H         1 <0>         0.0518
     36 H5         -0.2796    1.7357    1.4145 H         1 <0>         0.0528
     37 H6          0.8052   -0.4334   -0.4389 H         1 <0>         0.0594
     38 H7          0.6927   -0.5439    1.3340 H         1 <0>         0.0607
     39 H8         -1.7667   -0.2601    1.1957 H         1 <0>         0.0628
     40 H9         -1.6543   -0.1496   -0.5772 H         1 <0>         0.0594
     41 H10        -0.6819   -2.4292   -0.6576 H         1 <0>         0.0592
     42 H11        -0.7944   -2.5397    1.1153 H         1 <0>         0.0657
     43 H12        -3.2538   -2.2558    0.9770 H         1 <0>         0.0880
     44 H13        -3.1414   -2.1453   -0.7959 H         1 <0>         0.0672
     45 H14        -3.1913   -2.8862   -2.3233 H         1 <0>         0.1203
     46 H15        -3.0832   -3.9808   -4.5254 H         1 <0>         0.1155
     47 H16        -2.4985   -6.3669   -4.6860 H         1 <0>         0.1136
     48 H17        -2.0146   -7.6599   -2.6516 H         1 <0>         0.1229
     49 H18        -1.9211  -12.5428    6.2600 H         1 <0>         0.1526
     50 H19        -3.7479   -9.8416    9.0063 H         1 <0>         0.1520
     51 H20        -2.4077   -8.7024    0.4991 H         1 <0>         0.3780
@<TRIPOS>BOND
     1    1    2 1
     2    1   34 1
     3    1   35 1
     4    1   36 1
     5    2    3 1
     6    2   37 1
     7    2   38 1
     8    3    4 1
     9    3   39 1
    10    3   40 1
    11    4    5 1
    12    4   41 1
    13    4   42 1
    14    5    6 1
    15    5   43 1
    16    5   44 1
    17    6   16 1
    18    6    7 1
    19    7   12 ar
    20    7    8 ar
    21    8    9 ar
    22    8   45 1
    23    9   10 ar
    24    9   46 1
    25   10   11 ar
    26   10   47 1
    27   11   12 ar
    28   11   48 1
    29   12   13 1
    30   13   14 1
    31   13   15 1
    32   13   33 1
    33   15   16 2
    34   15   18 1
    35   16   17 1
    36   18   19 2
    37   18   20 1
    38   20   21 2
    39   21   26 1
    40   21   22 1
    41   22   23 1
    42   22   24 1
    43   24   30 ar
    44   24   25 ar
    45   25   26 1
    46   25   27 ar
    47   27   28 ar
    48   27   49 1
    49   28   29 ar
    50   28   32 1
    51   29   30 ar
    52   29   50 1
    53   30   31 1
    54   33   51 1
@<TRIPOS>MOLECULE
ZINC00728523
   66    70     0     0     0
SMALL
USER_CHARGES
cyclohexyl (4R,7S)-4-(4-hydroxy-3-nitro-phenyl)-2-methyl-5-oxo-7-phenyl-4,6,7,8-tetrahydro-1H-quinoline-3-carboxylate
@<TRIPOS>ATOM
      1 C1          5.5394    6.0121    2.8220 C.3       1 <0>        -0.2223
      2 C2          5.5611    4.7291    2.0319 C.2       1 <0>         0.2369
      3 C3          5.0432    4.6997    0.7917 C.2       1 <0>        -0.2512
      4 C4          5.0394    3.4383   -0.0208 C.3       1 <0>         0.0999
      5 H1          5.3330    3.6907   -1.0504 H         1 <0>         0.0844
      6 C5          6.0227    2.4364    0.5302 C.2       1 <0>        -0.2529
      7 C6          6.5036    2.5611    1.7854 C.2       1 <0>         0.1946
      8 N1          6.1069    3.6025    2.5810 N.pl3     1 <0>        -0.6450
      9 C7          7.4905    1.5651    2.3422 C.3       1 <0>        -0.0811
     10 C8          7.2461    0.1920    1.7124 C.3       1 <0>        -0.0399
     11 H2          6.2462   -0.1807    1.9796 H         1 <0>         0.0947
     12 C9          7.3826    0.3234    0.1918 C.3       1 <0>        -0.1582
     13 C10         6.4199    1.3713   -0.2967 C.2       1 <0>         0.3984
     14 O1          5.9780    1.2955   -1.4260 O.2       1 <0>        -0.4526
     15 C11         8.2651   -0.7907    2.2291 C.ar      1 <0>        -0.0761
     16 C12         9.6121   -0.5672    2.0136 C.ar      1 <0>        -0.1145
     17 C13        10.5470   -1.4664    2.4914 C.ar      1 <0>        -0.1191
     18 C14        10.1344   -2.5939    3.1765 C.ar      1 <0>        -0.1235
     19 C15         8.7871   -2.8198    3.3879 C.ar      1 <0>        -0.1176
     20 C16         7.8525   -1.9185    2.9138 C.ar      1 <0>        -0.1113
     21 C17         3.6569    2.8389    0.0025 C.ar      1 <0>        -0.2001
     22 C18         3.0850    2.4694    1.2062 C.ar      1 <0>        -0.0235
     23 C19         1.8157    1.9251    1.2307 C.ar      1 <0>        -0.2499
     24 C20         1.1185    1.7399    0.0455 C.ar      1 <0>         0.3099
     25 C21         1.6945    2.1113   -1.1605 C.ar      1 <0>        -0.1992
     26 C22         2.9625    2.6598   -1.1793 C.ar      1 <0>         0.0248
     27 N2          0.9511    1.9207   -2.4261 N.pl3     1 <0>         0.0707
     28 O2          1.4573    2.2471   -3.4848 O.2       1 <0>        -0.2668
     29 O3         -0.1668    1.4376   -2.4089 O.3       1 <0>        -0.1751
     30 O4         -0.1287    1.2006    0.0666 O.3       1 <0>        -0.6536
     31 C23         4.4916    5.8806    0.2421 C.2       1 <0>         0.5374
     32 O5          4.3919    6.8815    0.9269 O.2       1 <0>        -0.5229
     33 O6          4.0761    5.8972   -1.0417 O.3       1 <0>        -0.3324
     34 C24         3.5294    7.1235   -1.5308 C.3       1 <0>         0.0918
     35 C25         2.0194    7.1426   -1.2851 C.3       1 <0>        -0.1383
     36 C26         1.4340    8.4557   -1.8088 C.3       1 <0>        -0.1132
     37 C27         1.7081    8.5736   -3.3094 C.3       1 <0>        -0.1255
     38 C28         3.2181    8.5545   -3.5551 C.3       1 <0>        -0.1128
     39 C29         3.8035    7.2415   -3.0314 C.3       1 <0>        -0.1182
     40 H3          5.0655    6.8036    2.2229 H         1 <0>         0.1863
     41 H4          6.5696    6.3072    3.0704 H         1 <0>         0.0683
     42 H5          4.9673    5.8619    3.7494 H         1 <0>         0.0728
     43 H6          6.2308    3.5266    3.6714 H         1 <0>         0.4392
     44 H7          8.5142    1.8954    2.1121 H         1 <0>         0.0976
     45 H8          7.3644    1.4944    3.4327 H         1 <0>         0.0882
     46 H9          8.4119    0.6187   -0.0598 H         1 <0>         0.0988
     47 H10         7.1521   -0.6423   -0.2819 H         1 <0>         0.0975
     48 H11         9.9343    0.3116    1.4748 H         1 <0>         0.1220
     49 H12        11.5997   -1.2897    2.3266 H         1 <0>         0.1208
     50 H13        10.8647   -3.2982    3.5469 H         1 <0>         0.1197
     51 H14         8.4648   -3.7008    3.9231 H         1 <0>         0.1218
     52 H15         6.7998   -2.0951    3.0787 H         1 <0>         0.1244
     53 H16         3.6295    2.6103    2.1281 H         1 <0>         0.0975
     54 H17         1.3677    1.6408    2.1714 H         1 <0>         0.1116
     55 H18         3.4113    2.9492   -2.1180 H         1 <0>         0.1207
     56 H19         4.0351    7.9226   -0.9689 H         1 <0>         0.0808
     57 H20         1.5517    6.2971   -1.8108 H         1 <0>         0.0763
     58 H21         1.8223    7.0578   -0.2062 H         1 <0>         0.0679
     59 H22         0.3484    8.4694   -1.6321 H         1 <0>         0.0667
     60 H23         1.9017    9.3012   -1.2831 H         1 <0>         0.0622
     61 H24         1.2404    7.7281   -3.8351 H         1 <0>         0.0678
     62 H25         1.2873    9.5176   -3.6860 H         1 <0>         0.0629
     63 H26         3.4151    8.6393   -4.6340 H         1 <0>         0.0694
     64 H27         3.6859    9.4000   -3.0294 H         1 <0>         0.0621
     65 H28         4.8891    7.2278   -3.2080 H         1 <0>         0.0695
     66 H29         3.3358    6.3960   -3.5572 H         1 <0>         0.0804
@<TRIPOS>BOND
     1    1    2 1
     2    1   40 1
     3    1   41 1
     4    1   42 1
     5    2    8 1
     6    2    3 2
     7    3    4 1
     8    3   31 1
     9    4    5 1
    10    4    6 1
    11    4   21 1
    12    6   13 1
    13    6    7 2
    14    7    8 1
    15    7    9 1
    16    8   43 1
    17    9   10 1
    18    9   44 1
    19    9   45 1
    20   10   11 1
    21   10   12 1
    22   10   15 1
    23   12   13 1
    24   12   46 1
    25   12   47 1
    26   13   14 2
    27   15   20 ar
    28   15   16 ar
    29   16   17 ar
    30   16   48 1
    31   17   18 ar
    32   17   49 1
    33   18   19 ar
    34   18   50 1
    35   19   20 ar
    36   19   51 1
    37   20   52 1
    38   21   26 ar
    39   21   22 ar
    40   22   23 ar
    41   22   53 1
    42   23   24 ar
    43   23   54 1
    44   24   25 ar
    45   24   30 1
    46   25   26 ar
    47   25   27 1
    48   26   55 1
    49   27   28 2
    50   27   29 1
    51   31   32 2
    52   31   33 1
    53   33   34 1
    54   34   39 1
    55   34   35 1
    56   34   56 1
    57   35   36 1
    58   35   57 1
    59   35   58 1
    60   36   37 1
    61   36   59 1
    62   36   60 1
    63   37   38 1
    64   37   61 1
    65   37   62 1
    66   38   39 1
    67   38   63 1
    68   38   64 1
    69   39   65 1
    70   39   66 1
@<TRIPOS>MOLECULE
ZINC16883311
   59    63     0     0     0
SMALL
USER_CHARGES
6-hydroxy-3-[(4-methoxy-3-nitro-phenyl)methyl]-5-(1-naphthylmethyl)-2-phenyl-pyrimidin-4-one
@<TRIPOS>ATOM
      1 C1          2.5864   -4.6476   -5.6780 C.3       1 <0>         0.0159
      2 O1          1.3021   -4.2954   -5.1596 O.3       1 <0>        -0.2826
      3 C2          1.2630   -3.7899   -3.8988 C.ar      1 <0>         0.1948
      4 C3          2.4369   -3.6358   -3.1752 C.ar      1 <0>        -0.2166
      5 C4          2.3946   -3.1222   -1.8938 C.ar      1 <0>        -0.0123
      6 C5          1.1836   -2.7616   -1.3318 C.ar      1 <0>        -0.1363
      7 C6          0.0120   -2.9194   -2.0486 C.ar      1 <0>         0.0093
      8 C7          0.0497   -3.4274   -3.3329 C.ar      1 <0>        -0.0821
      9 N1         -1.2044   -3.5904   -4.1020 N.pl3     1 <0>         0.0376
     10 O2         -2.2696   -3.2720   -3.6045 O.2       1 <0>        -0.1686
     11 O3         -1.1711   -4.0429   -5.2322 O.3       1 <0>        -0.1482
     12 C8          1.1403   -2.2015    0.0665 C.3       1 <0>         0.1233
     13 N2          1.1215   -0.7378    0.0059 N.am      1 <0>        -0.5342
     14 C9         -0.0562   -0.0790   -0.0204 C.2       1 <0>         0.5285
     15 O4         -1.1115   -0.6917    0.0065 O.2       1 <0>        -0.5871
     16 C10        -0.0454    1.3225   -0.0774 C.2       1 <0>        -0.4468
     17 C11         1.1726    1.9775   -0.1067 C.2       1 <0>         0.4498
     18 N3          2.3079    1.2717   -0.0800 N.2       1 <0>        -0.5406
     19 C12         2.2933   -0.0425   -0.0255 C.2       1 <0>         0.4148
     20 C13         3.5734   -0.7800    0.0022 C.ar      1 <0>        -0.0377
     21 C14         3.8268   -1.7070    1.0150 C.ar      1 <0>        -0.1053
     22 C15         5.0222   -2.3952    1.0325 C.ar      1 <0>        -0.1213
     23 C16         5.9732   -2.1611    0.0550 C.ar      1 <0>        -0.1109
     24 C17         5.7304   -1.2402   -0.9488 C.ar      1 <0>        -0.1216
     25 C18         4.5373   -0.5487   -0.9809 C.ar      1 <0>        -0.0712
     26 O5          1.2150    3.3292   -0.1622 O.3       1 <0>        -0.6638
     27 C19        -1.3362    2.0998   -0.1062 C.3       1 <0>         0.0280
     28 C20        -1.8391    2.1858   -1.5241 C.ar      1 <0>        -0.0231
     29 C21        -1.1914    1.5232   -2.5214 C.ar      1 <0>        -0.1065
     30 C22        -1.6416    1.5910   -3.8381 C.ar      1 <0>        -0.1016
     31 C23        -2.7426    2.3213   -4.1658 C.ar      1 <0>        -0.1366
     32 C24        -3.4378    3.0186   -3.1634 C.ar      1 <0>        -0.0482
     33 C25        -2.9826    2.9457   -1.8230 C.ar      1 <0>        -0.0537
     34 C26        -3.6750    3.6472   -0.8212 C.ar      1 <0>        -0.0897
     35 C27        -4.7758    4.3774   -1.1488 C.ar      1 <0>        -0.1352
     36 C28        -5.2259    4.4457   -2.4661 C.ar      1 <0>        -0.1234
     37 C29        -4.5781    3.7834   -3.4632 C.ar      1 <0>        -0.1126
     38 H1          2.4744   -5.0407   -6.6992 H         1 <0>         0.1112
     39 H2          3.0422   -5.4167   -5.0370 H         1 <0>         0.0620
     40 H3          3.2312   -3.7566   -5.6967 H         1 <0>         0.0628
     41 H4          3.3829   -3.9177   -3.6135 H         1 <0>         0.1509
     42 H5          3.3080   -3.0017   -1.3303 H         1 <0>         0.1437
     43 H6         -0.9330   -2.6414   -1.6057 H         1 <0>         0.1699
     44 H7          0.2338   -2.5590    0.5768 H         1 <0>         0.1102
     45 H8          2.0293   -2.5341    0.6225 H         1 <0>         0.1062
     46 H9          3.0872   -1.8873    1.7811 H         1 <0>         0.1309
     47 H10         5.2178   -3.1155    1.8129 H         1 <0>         0.1278
     48 H11         6.9090   -2.6998    0.0755 H         1 <0>         0.1239
     49 H12         6.4770   -1.0623   -1.7087 H         1 <0>         0.1271
     50 H13         4.3492    0.1698   -1.7650 H         1 <0>         0.1309
     51 H14        -1.1625    3.1137    0.2834 H         1 <0>         0.0772
     52 H15        -2.0850    1.5904    0.5182 H         1 <0>         0.0639
     53 H16        -0.3150    0.9366   -2.2883 H         1 <0>         0.1144
     54 H17        -1.1092    1.0557   -4.6105 H         1 <0>         0.1085
     55 H18        -3.0798    2.3650   -5.1908 H         1 <0>         0.1175
     56 H19        -3.3380    3.6036    0.2039 H         1 <0>         0.1263
     57 H20        -5.3084    4.9123   -0.3764 H         1 <0>         0.1163
     58 H21        -6.1019    5.0327   -2.6992 H         1 <0>         0.1148
     59 H22        -4.9389    3.8450   -4.4792 H         1 <0>         0.1191
@<TRIPOS>BOND
     1    1    2 1
     2    1   38 1
     3    1   39 1
     4    1   40 1
     5    2    3 1
     6    3    8 ar
     7    3    4 ar
     8    4    5 ar
     9    4   41 1
    10    5    6 ar
    11    5   42 1
    12    6    7 ar
    13    6   12 1
    14    7    8 ar
    15    7   43 1
    16    8    9 1
    17    9   10 2
    18    9   11 1
    19   12   44 1
    20   12   45 1
    21   12   13 1
    22   13   14 am
    23   13   19 1
    24   14   15 2
    25   14   16 1
    26   16   27 1
    27   16   17 2
    28   17   26 1
    29   17   18 1
    30   18   19 2
    31   19   20 1
    32   20   25 ar
    33   20   21 ar
    34   21   22 ar
    35   21   46 1
    36   22   23 ar
    37   22   47 1
    38   23   24 ar
    39   23   48 1
    40   24   25 ar
    41   24   49 1
    42   25   50 1
    43   27   28 1
    44   27   51 1
    45   27   52 1
    46   28   33 ar
    47   28   29 ar
    48   29   30 ar
    49   29   53 1
    50   30   31 ar
    51   30   54 1
    52   31   32 ar
    53   31   55 1
    54   32   37 ar
    55   32   33 ar
    56   33   34 ar
    57   34   35 ar
    58   34   56 1
    59   35   36 ar
    60   35   57 1
    61   36   37 ar
    62   36   58 1
    63   37   59 1
@<TRIPOS>MOLECULE
ZINC09292010
   56    61     0     0     0
SMALL
USER_CHARGES

@<TRIPOS>ATOM
      1 C1          2.0036    0.7352   -2.2860 C.3       1 <0>        -0.1075
      2 C2          1.7980   -0.7155   -1.9332 C.ar      1 <0>        -0.0865
      3 C3          2.0349   -1.7063   -2.8754 C.ar      1 <0>        -0.1063
      4 C4          1.8558   -3.0323   -2.5807 C.ar      1 <0>        -0.0716
      5 C5          1.4199   -3.4348   -1.2968 C.ar      1 <0>         0.1141
      6 C6          1.1887   -2.3987   -0.3631 C.ar      1 <0>        -0.1721
      7 C7          1.3769   -1.0731   -0.6657 C.ar      1 <0>        -0.0566
      8 S1          0.6709   -3.2979    1.0791 S.3       1 <0>         0.0456
      9 C8          0.7897   -4.9369    0.3764 C.2       1 <0>         0.4110
     10 N1          1.1960   -4.6881   -0.8472 N.2       1 <0>        -0.5462
     11 N2          0.5224   -6.1574    0.9707 N.am      1 <0>        -0.5058
     12 C9          0.6471   -7.4739    0.3340 C.3       1 <0>         0.2662
     13 H1         -0.0201   -7.5392   -0.5254 H         1 <0>         0.0908
     14 C10         0.2469   -8.4872    1.3808 C.2       1 <0>        -0.4852
     15 C11         0.2102   -9.9439    1.2189 C.2       1 <0>         0.5099
     16 C12        -0.7271  -10.5561    0.2568 C.ar      1 <0>        -0.1660
     17 C13        -1.6587   -9.7638   -0.4214 C.ar      1 <0>        -0.0312
     18 C14        -2.5281  -10.3348   -1.3196 C.ar      1 <0>        -0.1521
     19 C15        -2.4913  -11.7092   -1.5637 C.ar      1 <0>         0.1207
     20 C16        -1.5667  -12.4942   -0.8799 C.ar      1 <0>        -0.1901
     21 C17        -0.6869  -11.9329    0.0117 C.ar      1 <0>        -0.0211
     22 C18        -1.7820  -13.9265   -1.3305 C.3       1 <0>        -0.1035
     23 C19        -3.1679  -13.8417   -2.0126 C.3       1 <0>         0.0765
     24 H2         -3.2106  -14.4968   -2.8827 H         1 <0>         0.1136
     25 O1         -3.2440  -12.4622   -2.4097 O.3       1 <0>        -0.3006
     26 C20        -4.2815  -14.1867   -1.0218 C.3       1 <0>        -0.1720
     27 O2          0.9524  -10.6483    1.8777 O.2       1 <0>        -0.4667
     28 C21        -0.0707   -7.7905    2.4973 C.2       1 <0>         0.2728
     29 O3         -0.4817   -8.3305    3.6679 O.3       1 <0>        -0.6312
     30 C22         0.1078   -6.3478    2.2364 C.2       1 <0>         0.5124
     31 O4         -0.0922   -5.4631    3.0449 O.2       1 <0>        -0.4830
     32 C23         2.0722   -7.7085   -0.0964 C.ar      1 <0>        -0.0605
     33 C24         3.1136   -7.3646    0.7452 C.ar      1 <0>        -0.0801
     34 C25         4.4208   -7.5796    0.3511 C.ar      1 <0>        -0.1088
     35 C26         4.6869   -8.1390   -0.8860 C.ar      1 <0>        -0.0360
     36 C27         3.6443   -8.4829   -1.7278 C.ar      1 <0>        -0.1098
     37 C28         2.3373   -8.2727   -1.3302 C.ar      1 <0>        -0.0881
     38 Cl1         6.3286   -8.4087   -1.3820 Cl        1 <0>        -0.0846
     39 H3          3.0318    1.0209   -2.0639 H         1 <0>         0.0707
     40 H4          1.8069    0.8823   -3.3479 H         1 <0>         0.0677
     41 H5          1.3208    1.3516   -1.7012 H         1 <0>         0.0664
     42 H6          2.3678   -1.4257   -3.8638 H         1 <0>         0.1284
     43 H7          2.0491   -3.7784   -3.3373 H         1 <0>         0.1298
     44 H8          1.1929   -0.3140    0.0801 H         1 <0>         0.1283
     45 H9         -1.6952   -8.7000   -0.2386 H         1 <0>         0.1411
     46 H10        -3.2448   -9.7166   -1.8397 H         1 <0>         0.1292
     47 H11         0.0321  -12.5534    0.5261 H         1 <0>         0.1321
     48 H12        -1.0150  -14.2302   -2.0429 H         1 <0>         0.0890
     49 H13        -1.8088  -14.6036   -0.4767 H         1 <0>         0.0912
     50 H14        -4.2563  -13.4852   -0.1880 H         1 <0>         0.0653
     51 H15        -5.2471  -14.1207   -1.5231 H         1 <0>         0.0664
     52 H16        -4.1345  -15.2002   -0.6485 H         1 <0>         0.0742
     53 H17         2.9057   -6.9276    1.7107 H         1 <0>         0.1211
     54 H18         5.2343   -7.3105    1.0085 H         1 <0>         0.1284
     55 H19         3.8514   -8.9193   -2.6937 H         1 <0>         0.1297
     56 H20         1.5232   -8.5455   -1.9853 H         1 <0>         0.1306
@<TRIPOS>BOND
     1    1    2 1
     2    1   39 1
     3    1   40 1
     4    1   41 1
     5    2    7 ar
     6    2    3 ar
     7    3    4 ar
     8    3   42 1
     9    4    5 ar
    10    4   43 1
    11    5   10 1
    12    5    6 ar
    13    6    7 ar
    14    6    8 1
    15    7   44 1
    16    8    9 1
    17    9   10 2
    18    9   11 1
    19   11   30 am
    20   11   12 1
    21   12   14 1
    22   12   32 1
    23   12   13 1
    24   14   28 2
    25   14   15 1
    26   15   27 2
    27   15   16 1
    28   16   21 ar
    29   16   17 ar
    30   17   18 ar
    31   17   45 1
    32   18   19 ar
    33   18   46 1
    34   19   25 1
    35   19   20 ar
    36   20   21 ar
    37   20   22 1
    38   21   47 1
    39   22   23 1
    40   22   48 1
    41   22   49 1
    42   23   24 1
    43   23   25 1
    44   23   26 1
    45   26   50 1
    46   26   51 1
    47   26   52 1
    48   28   30 1
    49   28   29 1
    50   30   31 2
    51   32   37 ar
    52   32   33 ar
    53   33   34 ar
    54   33   53 1
    55   34   35 ar
    56   34   54 1
    57   35   36 ar
    58   35   38 1
    59   36   37 ar
    60   36   55 1
    61   37   56 1
@<TRIPOS>MOLECULE
ZINC39899024
   48    52     0     0     0
SMALL
USER_CHARGES

@<TRIPOS>ATOM
      1 C1         -0.1322    1.9099    0.0110 C.ar      1 <0>        -0.0631
      2 C2          1.0586    2.6082    0.0774 C.ar      1 <0>        -0.1542
      3 C3          2.2312    1.9469    0.4009 C.ar      1 <0>         0.1109
      4 C4          2.2093    0.5864    0.6575 C.ar      1 <0>        -0.1577
      5 C5          1.0174   -0.1098    0.5904 C.ar      1 <0>        -0.0638
      6 C6         -0.1528    0.5516    0.2674 C.ar      1 <0>        -0.1316
      7 C7         -1.4519   -0.2087    0.1946 C.3       1 <0>         0.1811
      8 N1         -1.6480   -0.7111   -1.1675 N.am      1 <0>        -0.5921
      9 C8         -2.3294   -0.0001   -2.2570 C.3       1 <0>         0.2510
     10 H1         -3.3653    0.2008   -1.9838 H         1 <0>         0.1173
     11 C9         -2.2767   -0.9159   -3.4491 C.2       1 <0>        -0.1711
     12 C10        -2.6063   -1.1228   -4.7929 C.2       1 <0>         0.1241
     13 N2         -2.1527   -2.3136   -5.1315 N.2       1 <0>        -0.2358
     14 N3         -1.5696   -2.8789   -4.1350 N.pl3     1 <0>        -0.3296
     15 H2         -1.1608   -3.7583   -4.1545 H         1 <0>         0.4549
     16 C11        -1.6105   -2.0568   -3.0449 C.2       1 <0>        -0.0558
     17 C12        -1.2299   -1.9005   -1.6366 C.2       1 <0>         0.6009
     18 O1         -0.6247   -2.7301   -0.9848 O.2       1 <0>        -0.5097
     19 C13        -3.3333   -0.1762   -5.6750 C.ar      1 <0>        -0.0287
     20 C14        -4.4882    0.4559   -5.2213 C.ar      1 <0>        -0.0721
     21 C15        -5.1610    1.3365   -6.0458 C.ar      1 <0>        -0.0426
     22 C16        -4.6909    1.5926   -7.3229 C.ar      1 <0>        -0.0826
     23 C17        -3.5457    0.9701   -7.7818 C.ar      1 <0>        -0.1316
     24 C18        -2.8584    0.0891   -6.9623 C.ar      1 <0>         0.1422
     25 O2         -1.7292   -0.5191   -7.4109 O.3       1 <0>        -0.4872
     26 Cl1        -6.6007    2.1241   -5.4796 Cl        1 <0>        -0.0587
     27 C19        -1.6140    1.2910   -2.5610 C.ar      1 <0>        -0.0815
     28 C20        -0.2470    1.2912   -2.7683 C.ar      1 <0>        -0.0633
     29 C21         0.4104    2.4746   -3.0467 C.ar      1 <0>        -0.0924
     30 C22        -0.2995    3.6598   -3.1186 C.ar      1 <0>        -0.0209
     31 C23        -1.6684    3.6596   -2.9116 C.ar      1 <0>        -0.0304
     32 C24        -2.3256    2.4733   -2.6381 C.ar      1 <0>        -0.0832
     33 Cl2        -2.5605    5.1461   -3.0010 Cl        1 <0>        -0.0411
     34 Cl3         0.5258    5.1467   -3.4678 Cl        1 <0>        -0.0433
     35 F1          3.3959    2.6284    0.4657 F         1 <0>        -0.1374
     36 H3         -1.0477    2.4264   -0.2369 H         1 <0>         0.1289
     37 H4          1.0745    3.6693   -0.1232 H         1 <0>         0.1343
     38 H5          3.1235    0.0695    0.9095 H         1 <0>         0.1362
     39 H6          1.0002   -1.1710    0.7901 H         1 <0>         0.1365
     40 H7         -1.4216   -1.0472    0.8903 H         1 <0>         0.1048
     41 H8         -2.2759    0.4537    0.4597 H         1 <0>         0.1014
     42 H9         -4.8577    0.2576   -4.2260 H         1 <0>         0.1392
     43 H10        -5.2218    2.2816   -7.9631 H         1 <0>         0.1417
     44 H11        -3.1836    1.1736   -8.7787 H         1 <0>         0.1437
     45 H12        -1.8873   -1.3624   -7.8571 H         1 <0>         0.3970
     46 H13         0.3075    0.3661   -2.7122 H         1 <0>         0.1282
     47 H14         1.4783    2.4741   -3.2077 H         1 <0>         0.1411
     48 H15        -3.3940    2.4717   -2.4805 H         1 <0>         0.1461
@<TRIPOS>BOND
     1    1    6 ar
     2    1    2 ar
     3    1   36 1
     4    2    3 ar
     5    2   37 1
     6    3    4 ar
     7    3   35 1
     8    4    5 ar
     9    4   38 1
    10    5    6 ar
    11    5   39 1
    12    6    7 1
    13    7    8 1
    14    7   40 1
    15    7   41 1
    16    8   17 am
    17    8    9 1
    18    9   10 1
    19    9   11 1
    20    9   27 1
    21   11   16 2
    22   11   12 1
    23   12   13 2
    24   12   19 1
    25   13   14 1
    26   14   15 1
    27   14   16 1
    28   16   17 1
    29   17   18 2
    30   19   24 ar
    31   19   20 ar
    32   20   21 ar
    33   20   42 1
    34   21   22 ar
    35   21   26 1
    36   22   23 ar
    37   22   43 1
    38   23   24 ar
    39   23   44 1
    40   24   25 1
    41   25   45 1
    42   27   32 ar
    43   27   28 ar
    44   28   29 ar
    45   28   46 1
    46   29   30 ar
    47   29   47 1
    48   30   31 ar
    49   30   34 1
    50   31   32 ar
    51   31   33 1
    52   32   48 1
@<TRIPOS>MOLECULE
ZINC02435716
   57    61     0     0     0
SMALL
USER_CHARGES

@<TRIPOS>ATOM
      1 C1         -0.0773    1.6412   -1.8504 C.3       1 <0>         0.0252
      2 O1          0.0904    0.4860   -1.0260 O.3       1 <0>        -0.3170
      3 C2          0.5951   -0.6275   -1.6195 C.ar      1 <0>         0.1611
      4 C3          0.9276   -0.6070   -2.9663 C.ar      1 <0>        -0.2326
      5 C4          1.4409   -1.7400   -3.5671 C.ar      1 <0>         0.0166
      6 C5          1.6230   -2.8940   -2.8276 C.ar      1 <0>        -0.6630
      7 C6          1.2921   -2.9171   -1.4853 C.ar      1 <0>         0.0151
      8 C7          0.7842   -1.7849   -0.8783 C.ar      1 <0>        -0.1755
      9 S1          2.2775   -4.3377   -3.5971 S.o2      1 <0>         2.6440
     10 O2          1.8409   -5.4450   -2.8209 O.2       1 <0>        -1.0119
     11 O3          1.9952   -4.2216   -4.9849 O.2       1 <0>        -1.0133
     12 N1          3.9249   -4.2712   -3.4420 N.2       1 <0>        -1.0697
     13 C8          4.7117   -5.2882   -3.9609 C.ar      1 <0>         0.4190
     14 C9          6.1194   -5.2299   -3.8208 C.ar      1 <0>         0.3731
     15 N2          6.8781   -6.1894   -4.3090 N.ar      1 <0>        -0.4964
     16 C10         6.3137   -7.2280   -4.9427 C.ar      1 <0>         0.0398
     17 C11         7.1011   -8.2634   -5.4712 C.ar      1 <0>        -0.0741
     18 C12         6.5044   -9.3080   -6.1103 C.ar      1 <0>        -0.1475
     19 C13         5.1201   -9.3651   -6.2481 C.ar      1 <0>        -0.1148
     20 C14         4.3259   -8.3780   -5.7475 C.ar      1 <0>        -0.1040
     21 C15         4.9066   -7.2862   -5.0827 C.ar      1 <0>         0.1203
     22 N3          4.1449   -6.3050   -4.5761 N.ar      1 <0>        -0.5672
     23 N4          6.7031   -4.1554   -3.1658 N.pl3     1 <0>        -0.6311
     24 C16         8.0679   -4.1813   -2.8577 C.ar      1 <0>         0.1502
     25 C17         8.5322   -3.5585   -1.7064 C.ar      1 <0>        -0.1261
     26 C18         9.8790   -3.5844   -1.4031 C.ar      1 <0>        -0.1222
     27 C19        10.7685   -4.2323   -2.2482 C.ar      1 <0>         0.0805
     28 C20        10.3054   -4.8547   -3.3985 C.ar      1 <0>        -0.1687
     29 C21         8.9581   -4.8346   -3.7002 C.ar      1 <0>        -0.0941
     30 O4         12.0946   -4.2570   -1.9491 O.3       1 <0>        -0.2666
     31 C22        12.9509   -4.7421   -2.8860 C.ar      1 <0>         0.0951
     32 C23        13.3101   -3.9569   -3.9722 C.ar      1 <0>        -0.1335
     33 C24        14.1812   -4.4523   -4.9230 C.ar      1 <0>        -0.1064
     34 C25        14.6951   -5.7294   -4.7930 C.ar      1 <0>        -0.1245
     35 C26        14.3384   -6.5141   -3.7118 C.ar      1 <0>        -0.1062
     36 C27        13.4722   -6.0214   -2.7552 C.ar      1 <0>        -0.1257
     37 H1          0.8882    1.9392   -2.2591 H         1 <0>         0.0575
     38 H2         -0.7613    1.4088   -2.6667 H         1 <0>         0.0566
     39 H3         -0.4869    2.4566   -1.2542 H         1 <0>         0.0995
     40 H4          0.7849    0.2939   -3.5445 H         1 <0>         0.1317
     41 H5          1.6999   -1.7246   -4.6155 H         1 <0>         0.1393
     42 H6          1.4349   -3.8198   -0.9099 H         1 <0>         0.1439
     43 H7          0.5299   -1.8021    0.1712 H         1 <0>         0.1349
     44 H8          8.1761   -8.2316   -5.3718 H         1 <0>         0.1200
     45 H9          7.1133  -10.1024   -6.5159 H         1 <0>         0.1158
     46 H10         4.6698  -10.2033   -6.7592 H         1 <0>         0.1165
     47 H11         3.2535   -8.4351   -5.8615 H         1 <0>         0.1235
     48 H12         6.1652   -3.3861   -2.9213 H         1 <0>         0.4302
     49 H13         7.8401   -3.0538   -1.0486 H         1 <0>         0.1312
     50 H14        10.2403   -3.0999   -0.5080 H         1 <0>         0.1286
     51 H15        10.9984   -5.3588   -4.0558 H         1 <0>         0.1229
     52 H16         8.5973   -5.3229   -4.5934 H         1 <0>         0.1585
     53 H17        12.9088   -2.9595   -4.0744 H         1 <0>         0.1294
     54 H18        14.4608   -3.8417   -5.7688 H         1 <0>         0.1275
     55 H19        15.3760   -6.1148   -5.5374 H         1 <0>         0.1253
     56 H20        14.7409   -7.5113   -3.6128 H         1 <0>         0.1286
     57 H21        13.1973   -6.6331   -1.9085 H         1 <0>         0.1308
@<TRIPOS>BOND
     1    1    2 1
     2    1   37 1
     3    1   38 1
     4    1   39 1
     5    2    3 1
     6    3    8 ar
     7    3    4 ar
     8    4    5 ar
     9    4   40 1
    10    5    6 ar
    11    5   41 1
    12    6    7 ar
    13    6    9 1
    14    7    8 ar
    15    7   42 1
    16    8   43 1
    17    9   10 2
    18    9   11 2
    19    9   12 1
    20   12   13 1
    21   13   22 ar
    22   13   14 ar
    23   14   15 ar
    24   14   23 1
    25   15   16 ar
    26   16   21 ar
    27   16   17 ar
    28   17   18 ar
    29   17   44 1
    30   18   19 ar
    31   18   45 1
    32   19   20 ar
    33   19   46 1
    34   20   21 ar
    35   20   47 1
    36   21   22 ar
    37   23   24 1
    38   23   48 1
    39   24   29 ar
    40   24   25 ar
    41   25   26 ar
    42   25   49 1
    43   26   27 ar
    44   26   50 1
    45   27   28 ar
    46   27   30 1
    47   28   29 ar
    48   28   51 1
    49   29   52 1
    50   30   31 1
    51   31   36 ar
    52   31   32 ar
    53   32   33 ar
    54   32   53 1
    55   33   34 ar
    56   33   54 1
    57   34   35 ar
    58   34   55 1
    59   35   36 ar
    60   35   56 1
    61   36   57 1
@<TRIPOS>MOLECULE
ZINC63447969
   59    63     0     0     0
SMALL
USER_CHARGES

@<TRIPOS>ATOM
      1 C1         -0.0184    1.5028    0.0103 C.3       1 <0>        -0.1061
      2 C2          0.0021   -0.0041    0.0020 C.ar      1 <0>        -0.1014
      3 C3          0.0057   -0.6887   -1.1989 C.ar      1 <0>        -0.1251
      4 C4          0.0245   -2.0709   -1.2065 C.ar      1 <0>        -0.0902
      5 C5          0.0400   -2.7685   -0.0132 C.ar      1 <0>        -0.0625
      6 C6          0.0373   -2.0839    1.1877 C.ar      1 <0>        -0.1190
      7 C7          0.0229   -0.7016    1.1953 C.ar      1 <0>        -0.1224
      8 C8          0.0595   -4.2753   -0.0215 C.3       1 <0>         0.0660
      9 H1          0.0585   -4.6373   -1.0496 H         1 <0>         0.1005
     10 C9          1.3061   -4.7777    0.6996 C.3       1 <0>        -0.2162
     11 H2          1.3784   -5.8541    0.5442 H         1 <0>         0.1153
     12 C10         1.1710   -4.5250    2.1759 C.2       1 <0>         0.4949
     13 N1          2.1790   -4.0342    2.8670 N.2       1 <0>        -0.6140
     14 C11         3.3104   -3.6380    2.2846 C.2       1 <0>         0.4333
     15 N2          3.4759   -3.6557    0.9674 N.2       1 <0>        -0.6814
     16 C12         2.5528   -4.1439    0.1684 C.2       1 <0>         0.5260
     17 O1          2.7285   -4.0847   -1.0334 O.2       1 <0>        -0.5044
     18 S1          4.6339   -3.0695    3.2992 S.3       1 <0>         0.0139
     19 C13         5.9416   -2.6430    2.1166 C.3       1 <0>        -0.0764
     20 C14         7.1483   -2.1357    2.8633 C.ar      1 <0>        -0.0718
     21 C15         7.2720   -0.7872    3.1415 C.ar      1 <0>        -0.0580
     22 C16         8.3780   -0.3208    3.8261 C.ar      1 <0>        -0.1476
     23 C17         9.3634   -1.2043    4.2339 C.ar      1 <0>         0.1144
     24 C18         9.2393   -2.5546    3.9558 C.ar      1 <0>        -0.1472
     25 C19         8.1289   -3.0205    3.2749 C.ar      1 <0>         0.0059
     26 Cl1         7.9693   -4.7146    2.9308 Cl        1 <0>        -0.0411
     27 F1         10.4453   -0.7486    4.9025 F         1 <0>        -0.1330
     28 N3          0.0019   -4.7407    2.7714 N.2       1 <0>        -0.6061
     29 C20        -1.1023   -4.9910    2.0946 C.2       1 <0>         0.3044
     30 C21        -1.1572   -4.8059    0.7080 C.2       1 <0>        -0.3820
     31 C22        -2.2725   -5.0914   -0.0007 C.2       1 <0>         0.3505
     32 O2         -2.2590   -4.9218   -1.3354 O.3       1 <0>        -0.6054
     33 C23        -3.5274   -5.5922    0.6579 C.3       1 <0>        -0.1238
     34 C24        -3.1715   -6.3439    1.9429 C.3       1 <0>        -0.0574
     35 C25        -2.3415   -5.4200    2.8428 C.3       1 <0>        -0.0732
     36 C26        -2.3548   -7.5910    1.5982 C.3       1 <0>        -0.1465
     37 C27        -4.4541   -6.7521    2.6704 C.3       1 <0>        -0.1374
     38 H3          1.0042    1.8801    0.0026 H         1 <0>         0.0639
     39 H4         -0.5455    1.8639   -0.8728 H         1 <0>         0.0608
     40 H5         -0.5286    1.8543    0.9071 H         1 <0>         0.0608
     41 H6         -0.0064   -0.1436   -2.1312 H         1 <0>         0.1147
     42 H7          0.0266   -2.6057   -2.1448 H         1 <0>         0.1192
     43 H8          0.0491   -2.6289    2.1200 H         1 <0>         0.1269
     44 H9          0.0245   -0.1667    2.1335 H         1 <0>         0.1134
     45 H10         6.2152   -3.5283    1.5425 H         1 <0>         0.1122
     46 H11         5.5809   -1.8683    1.4399 H         1 <0>         0.1125
     47 H12         6.5040   -0.0978    2.8233 H         1 <0>         0.1488
     48 H13         8.4742    0.7329    4.0428 H         1 <0>         0.1449
     49 H14        10.0074   -3.2444    4.2730 H         1 <0>         0.1480
     50 H15        -4.1725   -4.7472    0.8990 H         1 <0>         0.0884
     51 H16        -4.0506   -6.2643   -0.0223 H         1 <0>         0.0834
     52 H17        -2.0543   -5.9529    3.7492 H         1 <0>         0.0893
     53 H18        -2.9314   -4.5419    3.1055 H         1 <0>         0.0911
     54 H19        -1.4392   -7.2955    1.0859 H         1 <0>         0.0611
     55 H20        -2.1025   -8.1247    2.5144 H         1 <0>         0.0562
     56 H21        -2.9410   -8.2411    0.9487 H         1 <0>         0.0556
     57 H22        -5.0478   -7.3992    2.0247 H         1 <0>         0.0576
     58 H23        -4.1985   -7.2872    3.5850 H         1 <0>         0.0584
     59 H24        -5.0298   -5.8607    2.9197 H         1 <0>         0.0570
@<TRIPOS>BOND
     1    1    2 1
     2    1   38 1
     3    1   39 1
     4    1   40 1
     5    2    7 ar
     6    2    3 ar
     7    3    4 ar
     8    3   41 1
     9    4    5 ar
    10    4   42 1
    11    5    6 ar
    12    5    8 1
    13    6    7 ar
    14    6   43 1
    15    7   44 1
    16    8    9 1
    17    8   30 1
    18    8   10 1
    19   10   11 1
    20   10   16 1
    21   10   12 1
    22   12   13 2
    23   12   28 1
    24   13   14 1
    25   14   15 2
    26   14   18 1
    27   15   16 1
    28   16   17 2
    29   18   19 1
    30   19   20 1
    31   19   45 1
    32   19   46 1
    33   20   25 ar
    34   20   21 ar
    35   21   22 ar
    36   21   47 1
    37   22   23 ar
    38   22   48 1
    39   23   24 ar
    40   23   27 1
    41   24   25 ar
    42   24   49 1
    43   25   26 1
    44   28   29 2
    45   29   35 1
    46   29   30 1
    47   30   31 2
    48   31   32 1
    49   31   33 1
    50   33   34 1
    51   33   50 1
    52   33   51 1
    53   34   35 1
    54   34   36 1
    55   34   37 1
    56   35   52 1
    57   35   53 1
    58   36   54 1
    59   36   55 1
    60   36   56 1
    61   37   57 1
    62   37   58 1
    63   37   59 1
@<TRIPOS>MOLECULE
ZINC15010357
   55    59     0     0     0
SMALL
USER_CHARGES
3-[[(5Z)-5-[[1-[(2-cyanophenyl)methyl]indol-3-yl]methylene]-3-methyl-4-oxo-thiazolidin-2-ylidene]amino]benzoic acid
@<TRIPOS>ATOM
      1 C1         -7.1809   -2.3677    4.8041 C.3       1 <0>         0.0732
      2 N1         -6.1638   -1.6163    4.0643 N.am      1 <0>        -0.5447
      3 C2         -5.5424   -0.6028    4.6419 C.2       1 <0>         0.5630
      4 O1         -5.8040   -0.2811    5.7871 O.2       1 <0>        -0.5072
      5 C3         -4.5581    0.1052    3.8905 C.2       1 <0>        -0.2433
      6 C4         -3.7929    1.1687    4.2591 C.2       1 <0>         0.1122
      7 C5         -2.9030    1.8024    3.2853 C.2       1 <0>        -0.1830
      8 C6         -2.4880    1.2777    2.0937 C.2       1 <0>         0.1149
      9 N2         -1.6689    2.1607    1.4659 N.pl3     1 <0>        -0.4626
     10 C7         -1.5130    3.2992    2.2297 C.ar      1 <0>         0.0971
     11 C8         -2.2774    3.1338    3.3961 C.ar      1 <0>        -0.0750
     12 C9         -2.3100    4.1396    4.3580 C.ar      1 <0>        -0.0733
     13 C10        -1.5833    5.2942    4.1628 C.ar      1 <0>        -0.1370
     14 C11        -0.8303    5.4607    3.0099 C.ar      1 <0>        -0.0998
     15 C12        -0.7918    4.4746    2.0479 C.ar      1 <0>        -0.1200
     16 C13        -1.0355    1.9338    0.1645 C.3       1 <0>         0.1382
     17 C14         0.3540    1.3880    0.3706 C.ar      1 <0>        -0.0769
     18 C15         1.4385    2.2409    0.3737 C.ar      1 <0>        -0.0974
     19 C16         2.7152    1.7409    0.5575 C.ar      1 <0>        -0.0932
     20 C17         2.9142    0.3834    0.7383 C.ar      1 <0>        -0.1075
     21 C18         1.8390   -0.4806    0.7374 C.ar      1 <0>        -0.0715
     22 C19         0.5474    0.0174    0.5529 C.ar      1 <0>         0.0020
     23 C20        -0.5736   -0.8736    0.5512 C.1       1 <0>         0.2133
     24 N3         -1.4628   -1.5805    0.5499 N.1       1 <0>        -0.3619
     25 S1         -4.6028   -0.7711    2.3337 S.3       1 <0>        -0.0516
     26 C21        -5.8566   -1.9679    2.7654 C.2       1 <0>         0.3813
     27 N4         -6.3621   -2.9343    2.0310 N.2       1 <0>        -0.4349
     28 C22        -5.9194   -3.1232    0.7498 C.ar      1 <0>         0.0642
     29 C23        -5.7621   -2.0290   -0.1057 C.ar      1 <0>        -0.1406
     30 C24        -5.3101   -2.2174   -1.3963 C.ar      1 <0>        -0.1211
     31 C25        -5.0213   -3.4874   -1.8554 C.ar      1 <0>        -0.0690
     32 C26        -5.1793   -4.5910   -1.0135 C.ar      1 <0>        -0.1013
     33 C27        -5.6297   -4.4082    0.2929 C.ar      1 <0>        -0.0527
     34 C28        -4.8692   -5.9489   -1.5066 C.2       1 <0>         0.4914
     35 O2         -5.0067   -6.9074   -0.7733 O.co2     1 <0>        -0.6274
     36 H1         -7.2862   -1.9485    5.8047 H         1 <0>         0.0961
     37 H2         -8.1344   -2.3012    4.2801 H         1 <0>         0.0771
     38 H3         -6.8789   -3.4124    4.8777 H         1 <0>         0.0790
     39 H4         -3.8424    1.5450    5.2702 H         1 <0>         0.1569
     40 H5         -2.7686    0.3082    1.7095 H         1 <0>         0.1795
     41 H6         -2.8944    4.0118    5.2571 H         1 <0>         0.1262
     42 H7         -1.6044    6.0752    4.9085 H         1 <0>         0.1252
     43 H8         -0.2690    6.3719    2.8645 H         1 <0>         0.1268
     44 H9         -0.2020    4.6141    1.1540 H         1 <0>         0.1207
     45 H10        -0.9786    2.8757   -0.3810 H         1 <0>         0.1112
     46 H11        -1.6260    1.2179   -0.4071 H         1 <0>         0.1052
     47 H12         1.2903    3.3014    0.2328 H         1 <0>         0.1333
     48 H13         3.5606    2.4130    0.5594 H         1 <0>         0.1337
     49 H14         3.9136   -0.0004    0.8808 H         1 <0>         0.1366
     50 H15         1.9957   -1.5398    0.8786 H         1 <0>         0.1381
     51 H16        -5.9907   -1.0335    0.2451 H         1 <0>         0.1199
     52 H17        -5.1864   -1.3680   -2.0518 H         1 <0>         0.1198
     53 H18        -4.6727   -3.6279   -2.8679 H         1 <0>         0.1339
     54 H19        -5.7533   -5.2577    0.9481 H         1 <0>         0.1345
     55 O3         -4.4340   -6.1239   -2.7694 O.co2     1 <0>        -0.7514
@<TRIPOS>BOND
     1    1    2 1
     2    1   36 1
     3    1   37 1
     4    1   38 1
     5    2   26 1
     6    2    3 am
     7    3    4 2
     8    3    5 1
     9    5    6 2
    10    5   25 1
    11    6    7 1
    12    6   39 1
    13    7   11 1
    14    7    8 2
    15    8    9 1
    16    8   40 1
    17    9   10 1
    18    9   16 1
    19   10   15 ar
    20   10   11 ar
    21   11   12 ar
    22   12   13 ar
    23   12   41 1
    24   13   14 ar
    25   13   42 1
    26   14   15 ar
    27   14   43 1
    28   15   44 1
    29   16   17 1
    30   16   45 1
    31   16   46 1
    32   17   22 ar
    33   17   18 ar
    34   18   19 ar
    35   18   47 1
    36   19   20 ar
    37   19   48 1
    38   20   21 ar
    39   20   49 1
    40   21   22 ar
    41   21   50 1
    42   22   23 1
    43   23   24 3
    44   25   26 1
    45   26   27 2
    46   27   28 1
    47   28   33 ar
    48   28   29 ar
    49   29   30 ar
    50   29   51 1
    51   30   31 ar
    52   30   52 1
    53   31   32 ar
    54   31   53 1
    55   32   33 ar
    56   32   34 1
    57   33   54 1
    58   34   35 2
    59   34   55 1
@<TRIPOS>MOLECULE
ZINC33809046
   59    63     0     0     0
SMALL
USER_CHARGES
2-[(E)-[(5S)-7-methyl-5-(5-methyl-2-furyl)-6-(o-tolylcarbamoyl)-3-oxo-5H-thiazolo[3,2-a]pyrimidin-2-ylidene]methyl]benzoic acid
@<TRIPOS>ATOM
      1 C1         -2.2765   -0.2976    1.5151 C.3       1 <0>        -0.1154
      2 C2         -2.4818   -0.7342    0.0874 C.ar      1 <0>        -0.1214
      3 C3         -3.5436   -1.5552   -0.2387 C.ar      1 <0>        -0.0993
      4 C4         -3.7295   -1.9605   -1.5475 C.ar      1 <0>        -0.1429
      5 C5         -2.8564   -1.5416   -2.5350 C.ar      1 <0>        -0.1032
      6 C6         -1.7960   -0.7166   -2.2166 C.ar      1 <0>        -0.1393
      7 C7         -1.6066   -0.3072   -0.9027 C.ar      1 <0>         0.1604
      8 N1         -0.5338    0.5283   -0.5769 N.am      1 <0>        -0.6696
      9 C8          0.0648    1.2617   -1.5363 C.2       1 <0>         0.6035
     10 O1         -0.3930    1.2777   -2.6657 O.2       1 <0>        -0.5125
     11 C9          1.2151    2.0138   -1.2324 C.2       1 <0>        -0.3074
     12 C10         2.4302    1.4097   -1.0849 C.2       1 <0>         0.2092
     13 N2          3.5119    2.1272   -0.8034 N.2       1 <0>        -0.5265
     14 C11         3.5244    3.4244   -0.6351 C.2       1 <0>         0.4068
     15 N3          2.4086    4.2243   -0.7337 N.am      1 <0>        -0.5841
     16 C12         2.5433    5.5427   -0.5399 C.2       1 <0>         0.5510
     17 O2          1.5861    6.2894   -0.6169 O.2       1 <0>        -0.4526
     18 C13         3.8884    6.0602   -0.2315 C.2       1 <0>        -0.2795
     19 C14         4.2891    7.3355    0.0048 C.2       1 <0>         0.1626
     20 C15         3.2926    8.4046    0.1400 C.ar      1 <0>        -0.0805
     21 C16         2.1535    8.2103    0.9265 C.ar      1 <0>        -0.0616
     22 C17         1.2241    9.2213    1.0544 C.ar      1 <0>        -0.1298
     23 C18         1.4035   10.4286    0.3978 C.ar      1 <0>        -0.1119
     24 C19         2.5181   10.6401   -0.3886 C.ar      1 <0>        -0.0891
     25 C20         3.4744    9.6352   -0.5280 C.ar      1 <0>        -0.0762
     26 C21         4.6672    9.8561   -1.3666 C.2       1 <0>         0.4876
     27 O3          5.4460    8.9453   -1.5672 O.co2     1 <0>        -0.6232
     28 O4          4.8935   11.0681   -1.9104 O.co2     1 <0>        -0.7395
     29 S1          4.8481    4.5542   -0.2516 S.3       1 <0>         0.1204
     30 C22         1.1393    3.5126   -1.0538 C.3       1 <0>         0.2972
     31 H1          0.8533    3.9087   -2.0394 H         1 <0>         0.1167
     32 C23         0.1561    3.7985    0.0519 C.2       1 <0>        -0.0259
     33 C24        -1.1402    4.1184   -0.1114 C.2       1 <0>        -0.1686
     34 C25        -1.6832    4.3003    1.1813 C.2       1 <0>        -0.2056
     35 C26        -0.6862    4.0808    2.0572 C.2       1 <0>        -0.0082
     36 O5          0.4241    3.7715    1.3676 O.3       1 <0>        -0.1651
     37 C27        -0.7979    4.1609    3.5579 C.3       1 <0>        -0.0756
     38 C28         2.5465   -0.0839   -1.2484 C.3       1 <0>        -0.1138
     39 H2         -3.0632   -0.7334    2.1485 H         1 <0>         0.0699
     40 H3         -2.3247    0.7998    1.5735 H         1 <0>         0.0689
     41 H4         -1.2918   -0.6405    1.8654 H         1 <0>         0.0649
     42 H5         -4.2269   -1.8843    0.5301 H         1 <0>         0.1221
     43 H6         -4.5582   -2.6058   -1.7992 H         1 <0>         0.1193
     44 H7         -3.0040   -1.8606   -3.5563 H         1 <0>         0.1224
     45 H8         -1.1148   -0.3896   -2.9883 H         1 <0>         0.1522
     46 H9         -0.1783    0.5871    0.4624 H         1 <0>         0.4322
     47 H10         5.3606    7.5676    0.0949 H         1 <0>         0.1769
     48 H11         2.0035    7.2707    1.4374 H         1 <0>         0.1131
     49 H12         0.3477    9.0693    1.6668 H         1 <0>         0.1170
     50 H13         0.6656   11.2101    0.5026 H         1 <0>         0.1198
     51 H14         2.6491   11.5842   -0.8964 H         1 <0>         0.1359
     52 H15        -1.6656    4.2168   -1.0498 H         1 <0>         0.1452
     53 H16        -2.7028    4.5646    1.4198 H         1 <0>         0.1478
     54 H17         0.1780    3.9320    4.0109 H         1 <0>         0.0756
     55 H18        -1.5449    3.4339    3.9093 H         1 <0>         0.0857
     56 H19        -1.1084    5.1753    3.8488 H         1 <0>         0.0870
     57 H20         3.5921   -0.3892   -1.0949 H         1 <0>         0.0901
     58 H21         2.2266   -0.3678   -2.2618 H         1 <0>         0.0851
     59 H22         1.9058   -0.5848   -0.5078 H         1 <0>         0.0820
@<TRIPOS>BOND
     1    1    2 1
     2    1   39 1
     3    1   40 1
     4    1   41 1
     5    2    7 ar
     6    2    3 ar
     7    3    4 ar
     8    3   42 1
     9    4    5 ar
    10    4   43 1
    11    5    6 ar
    12    5   44 1
    13    6    7 ar
    14    6   45 1
    15    7    8 1
    16    8    9 am
    17    8   46 1
    18    9   10 2
    19    9   11 1
    20   11   30 1
    21   11   12 2
    22   12   13 1
    23   12   38 1
    24   13   14 2
    25   14   29 1
    26   14   15 1
    27   15   16 am
    28   15   30 1
    29   16   17 2
    30   16   18 1
    31   18   19 2
    32   18   29 1
    33   19   20 1
    34   19   47 1
    35   20   25 ar
    36   20   21 ar
    37   21   22 ar
    38   21   48 1
    39   22   23 ar
    40   22   49 1
    41   23   24 ar
    42   23   50 1
    43   24   25 ar
    44   24   51 1
    45   25   26 1
    46   26   27 2
    47   26   28 1
    48   30   31 1
    49   30   32 1
    50   32   36 1
    51   32   33 2
    52   33   34 1
    53   33   52 1
    54   34   35 2
    55   34   53 1
    56   35   36 1
    57   35   37 1
    58   37   54 1
    59   37   55 1
    60   37   56 1
    61   38   57 1
    62   38   58 1
    63   38   59 1
@<TRIPOS>MOLECULE
ZINC39899025
   47    51     0     0     0
SMALL
USER_CHARGES

@<TRIPOS>ATOM
      1 C1         -0.0167    1.3782    0.0096 C.ar      1 <0>        -0.0684
      2 C2          1.1703    2.0860    0.0021 C.ar      1 <0>        -0.1550
      3 C3          2.3786    1.4101   -0.0131 C.ar      1 <0>         0.1013
      4 C4          2.3962    0.0256   -0.0207 C.ar      1 <0>        -0.1575
      5 C5          1.2079   -0.6800   -0.0132 C.ar      1 <0>        -0.0652
      6 C6          0.0021   -0.0041    0.0020 C.ar      1 <0>        -0.1229
      7 C7         -1.2930   -0.7747    0.0103 C.3       1 <0>         0.1815
      8 N1         -1.7258   -1.0170   -1.3682 N.am      1 <0>        -0.5979
      9 C8         -2.5838   -0.1285   -2.1609 C.3       1 <0>         0.2627
     10 H1         -2.1063    0.8440   -2.2804 H         1 <0>         0.1102
     11 C9         -2.7530   -0.7891   -3.5017 C.2       1 <0>        -0.2005
     12 C10        -3.3005   -0.7411   -4.7439 C.2       1 <0>         0.1884
     13 N2         -2.9000   -1.8742   -5.3924 N.pl3     1 <0>        -0.3875
     14 N3         -2.1570   -2.5826   -4.6186 N.2       1 <0>        -0.2277
     15 H2         -3.1406   -2.1097   -6.3021 H         1 <0>         0.4469
     16 C11        -2.0164   -1.9941   -3.4476 C.2       1 <0>        -0.0506
     17 C12        -1.3967   -2.0860   -2.1133 C.2       1 <0>         0.6188
     18 O1         -0.6900   -3.0014   -1.7385 O.2       1 <0>        -0.5248
     19 C13        -4.1634    0.3303   -5.2883 C.ar      1 <0>        -0.2105
     20 C14        -5.4929    0.0621   -5.6125 C.ar      1 <0>        -0.0267
     21 C15        -6.2935    1.0660   -6.1203 C.ar      1 <0>        -0.1659
     22 C16        -5.7805    2.3385   -6.3093 C.ar      1 <0>        -0.0464
     23 C17        -4.4641    2.6145   -5.9915 C.ar      1 <0>        -0.2492
     24 C18        -3.6509    1.6189   -5.4749 C.ar      1 <0>         0.3022
     25 O2         -2.3584    1.8912   -5.1567 O.3       1 <0>        -0.6962
     26 Cl1        -7.9485    0.7317   -6.5238 Cl        1 <0>        -0.1217
     27 C19        -3.9231    0.0322   -1.4891 C.ar      1 <0>        -0.0635
     28 C20        -4.5161   -1.0483   -0.8629 C.ar      1 <0>        -0.0953
     29 C21        -5.7444   -0.9012   -0.2462 C.ar      1 <0>        -0.0932
     30 C22        -6.3802    0.3272   -0.2557 C.ar      1 <0>        -0.0880
     31 C23        -5.7864    1.4080   -0.8824 C.ar      1 <0>        -0.0859
     32 C24        -4.5558    1.2613   -1.4943 C.ar      1 <0>        -0.0863
     33 Br1        -8.0609    0.5288    0.5872 Br        1 <0>        -0.0618
     34 F1          3.5396    2.1009   -0.0209 F         1 <0>        -0.1420
     35 H3         -0.9592    1.9052    0.0260 H         1 <0>         0.1344
     36 H4          1.1554    3.1659    0.0077 H         1 <0>         0.1359
     37 H5          3.3381   -0.5027   -0.0329 H         1 <0>         0.1343
     38 H6          1.2213   -1.7599   -0.0195 H         1 <0>         0.1373
     39 H7         -1.1453   -1.7280    0.5176 H         1 <0>         0.0985
     40 H8         -2.0553   -0.1984    0.5345 H         1 <0>         0.0962
     41 H9         -5.8957   -0.9293   -5.4670 H         1 <0>         0.1028
     42 H10        -6.4122    3.1190   -6.7072 H         1 <0>         0.1055
     43 H11        -4.0700    3.6087   -6.1419 H         1 <0>         0.1091
     44 H12        -4.0198   -2.0074   -0.8558 H         1 <0>         0.1259
     45 H13        -6.2077   -1.7454    0.2426 H         1 <0>         0.1291
     46 H14        -6.2825    2.3673   -0.8901 H         1 <0>         0.1324
     47 H15        -4.0902    2.1061   -1.9801 H         1 <0>         0.1372
@<TRIPOS>BOND
     1    1    6 ar
     2    1    2 ar
     3    1   35 1
     4    2    3 ar
     5    2   36 1
     6    3    4 ar
     7    3   34 1
     8    4    5 ar
     9    4   37 1
    10    5    6 ar
    11    5   38 1
    12    6    7 1
    13    7    8 1
    14    7   39 1
    15    7   40 1
    16    8   17 am
    17    8    9 1
    18    9   10 1
    19    9   11 1
    20    9   27 1
    21   11   16 1
    22   11   12 2
    23   12   19 1
    24   12   13 1
    25   13   15 1
    26   13   14 1
    27   14   16 2
    28   16   17 1
    29   17   18 2
    30   19   24 ar
    31   19   20 ar
    32   20   21 ar
    33   20   41 1
    34   21   22 ar
    35   21   26 1
    36   22   23 ar
    37   22   42 1
    38   23   24 ar
    39   23   43 1
    40   24   25 1
    41   27   32 ar
    42   27   28 ar
    43   28   29 ar
    44   28   44 1
    45   29   30 ar
    46   29   45 1
    47   30   31 ar
    48   30   33 1
    49   31   32 ar
    50   31   46 1
    51   32   47 1
@<TRIPOS>MOLECULE
ZINC59437120
   41    43     0     0     0
SMALL
USER_CHARGES

@<TRIPOS>ATOM
      1 C1          1.8527    1.3116    0.9291 C.3       1 <0>        -0.1439
      2 C2          1.6084   -0.1921    0.7868 C.3       1 <0>         0.0630
      3 O1          2.0135   -0.6193   -0.5153 O.3       1 <0>        -0.3411
      4 C3          1.8631   -1.9283   -0.8047 C.2       1 <0>         0.5375
      5 C4          2.2568   -2.4371   -2.1196 C.2       1 <0>        -0.4200
      6 C5          2.1136   -3.7579   -2.4511 C.2       1 <0>         0.3479
      7 O2          1.5987   -4.6400   -1.5651 O.3       1 <0>        -0.5756
      8 C6          2.5163   -4.1811   -3.7434 C.2       1 <0>        -0.1149
      9 C7          2.4625   -5.4333   -4.2760 C.2       1 <0>        -0.0215
     10 C8          3.0773   -5.7027   -5.5817 C.ar      1 <0>        -0.0496
     11 C9          4.0534   -4.8378   -6.0923 C.ar      1 <0>        -0.0915
     12 C10         4.6261   -5.0980   -7.3185 C.ar      1 <0>        -0.1083
     13 C11         4.2389   -6.2105   -8.0460 C.ar      1 <0>        -0.0907
     14 C12         3.2740   -7.0711   -7.5492 C.ar      1 <0>        -0.0916
     15 C13         2.6952   -6.8288   -6.3207 C.ar      1 <0>        -0.0727
     16 Br1         2.7541   -8.5862   -8.5543 Br        1 <0>        -0.0567
     17 S1          3.1092   -2.6812   -4.5046 S.3       1 <0>        -0.1085
     18 C14         2.8205   -1.5529   -3.1527 C.2       1 <0>         0.3086
     19 N1          3.0546   -0.2554   -3.0935 N.2       1 <0>        -0.4968
     20 C15         3.5882    0.3919   -4.1708 C.ar      1 <0>         0.1530
     21 C16         4.6633   -0.1697   -4.8660 C.ar      1 <0>        -0.1677
     22 C17         5.1967    0.4894   -5.9533 C.ar      1 <0>        -0.0643
     23 C18         4.6701    1.7048   -6.3572 C.ar      1 <0>        -0.1239
     24 C19         3.6052    2.2671   -5.6734 C.ar      1 <0>        -0.0715
     25 C20         3.0582    1.6167   -4.5875 C.ar      1 <0>        -0.1227
     26 Br2         5.4090    2.6013   -7.8492 Br        1 <0>        -0.0707
     27 O3          1.4002   -2.6858    0.0269 O.2       1 <0>        -0.5288
     28 H1          2.9132    1.5220    0.7912 H         1 <0>         0.0617
     29 H2          1.2751    1.8465    0.1751 H         1 <0>         0.0618
     30 H3          1.5437    1.6375    1.9223 H         1 <0>         0.0664
     31 H4          2.1859   -0.7270    1.5407 H         1 <0>         0.0530
     32 H5          0.5478   -0.4025    0.9246 H         1 <0>         0.0531
     33 H6          1.9674   -6.2282   -3.7379 H         1 <0>         0.1535
     34 H7          4.3563   -3.9690   -5.5267 H         1 <0>         0.1478
     35 H8          5.3789   -4.4318   -7.7134 H         1 <0>         0.1344
     36 H9          4.6915   -6.4082   -9.0064 H         1 <0>         0.1313
     37 H10         1.9465   -7.5032   -5.9322 H         1 <0>         0.1375
     38 H11         5.0752   -1.1174   -4.5519 H         1 <0>         0.1332
     39 H12         6.0275    0.0570   -6.4911 H         1 <0>         0.1271
     40 H13         3.1995    3.2153   -5.9939 H         1 <0>         0.1290
     41 H14         2.2251    2.0544   -4.0576 H         1 <0>         0.1329
@<TRIPOS>BOND
     1    1    2 1
     2    1   28 1
     3    1   29 1
     4    1   30 1
     5    2    3 1
     6    2   31 1
     7    2   32 1
     8    3    4 1
     9    4    5 1
    10    4   27 2
    11    5   18 1
    12    5    6 2
    13    6    7 1
    14    6    8 1
    15    8    9 2
    16    8   17 1
    17    9   10 1
    18    9   33 1
    19   10   15 ar
    20   10   11 ar
    21   11   12 ar
    22   11   34 1
    23   12   13 ar
    24   12   35 1
    25   13   14 ar
    26   13   36 1
    27   14   15 ar
    28   14   16 1
    29   15   37 1
    30   17   18 1
    31   18   19 2
    32   19   20 1
    33   20   25 ar
    34   20   21 ar
    35   21   22 ar
    36   21   38 1
    37   22   23 ar
    38   22   39 1
    39   23   24 ar
    40   23   26 1
    41   24   25 ar
    42   24   40 1
    43   25   41 1
@<TRIPOS>MOLECULE
ZINC09510506
   67    70     0     0     0
SMALL
USER_CHARGES

@<TRIPOS>ATOM
      1 C1         -1.7419    3.3256    0.6528 C.3       1 <0>        -0.1487
      2 C2         -0.9943    2.0757    0.1840 C.3       1 <0>        -0.1206
      3 C3         -1.9781    0.9109    0.0563 C.3       1 <0>        -0.1304
      4 C4         -1.2306   -0.3390   -0.4125 C.3       1 <0>         0.1259
      5 N1         -2.1726   -1.4543   -0.5348 N.pl3     1 <0>        -0.5779
      6 C5         -2.4228   -2.2958    0.5548 C.ar      1 <0>         0.3279
      7 C6         -1.5803   -2.2417    1.6600 C.ar      1 <0>        -0.1995
      8 C7         -1.8124   -3.0611    2.7462 C.ar      1 <0>        -0.0104
      9 C8         -2.8839   -3.9356    2.7340 C.ar      1 <0>        -0.1195
     10 C9         -3.7213   -3.9919    1.6370 C.ar      1 <0>        -0.0095
     11 C10        -3.4948   -3.1743    0.5423 C.ar      1 <0>        -0.1283
     12 C11        -4.4232   -3.2653   -0.6398 C.3       1 <0>        -0.0375
     13 C12        -4.3440   -1.9883   -1.4789 C.3       1 <0>        -0.1297
     14 C13        -2.8739   -1.7031   -1.8014 C.3       1 <0>         0.1874
     15 H1         -2.8008   -0.8248   -2.4427 H         1 <0>         0.0869
     16 C14        -2.2579   -2.9135   -2.5059 C.3       1 <0>        -0.1474
     17 C15        -0.8154   -2.5929   -2.9028 C.3       1 <0>        -0.1182
     18 C16        -0.1993   -3.8032   -3.6074 C.3       1 <0>        -0.1483
     19 C17        -4.9090   -0.8370   -0.6967 C.2       1 <0>         0.4669
     20 O1         -4.3478   -0.5177    0.4806 O.3       1 <0>        -0.6084
     21 N2         -5.9197   -0.1391   -1.1173 N.2       1 <0>        -0.6604
     22 C18        -6.5362   -0.3914   -2.2809 C.2       1 <0>         0.6675
     23 O2         -7.4788    0.3011   -2.6151 O.2       1 <0>        -0.5490
     24 N3         -6.1394   -1.3897   -3.0861 N.am      1 <0>        -0.5488
     25 C19        -5.1052   -2.1809   -2.7607 C.2       1 <0>         0.5341
     26 O3         -4.7782   -3.0704   -3.5168 O.2       1 <0>        -0.5045
     27 C20        -6.8187   -1.6096   -4.2921 C.ar      1 <0>         0.1580
     28 C21        -7.9091   -2.4681   -4.3297 C.ar      1 <0>        -0.1055
     29 C22        -8.5765   -2.6829   -5.5197 C.ar      1 <0>        -0.0772
     30 C23        -8.1596   -2.0438   -6.6729 C.ar      1 <0>        -0.1198
     31 C24        -7.0739   -1.1882   -6.6386 C.ar      1 <0>        -0.0781
     32 C25        -6.4060   -0.9650   -5.4504 C.ar      1 <0>        -0.1059
     33 C26        -6.6225   -0.4941   -7.8978 C.3       1 <0>        -0.1097
     34 C27        -9.7599   -3.6150   -5.5614 C.3       1 <0>        -0.1103
     35 N4         -3.1336   -4.8135    3.8991 N.pl3     1 <0>         0.0556
     36 O4         -2.4013   -4.7657    4.8599 O.2       1 <0>        -0.1909
     37 O5         -4.0698   -5.5784    3.8900 O.3       1 <0>        -0.1896
     38 H2         -1.0410    4.1554    0.7437 H         1 <0>         0.0474
     39 H3         -2.5144    3.5804   -0.0727 H         1 <0>         0.0542
     40 H4         -2.2027    3.1315    1.6213 H         1 <0>         0.0551
     41 H5         -0.5335    2.2699   -0.7845 H         1 <0>         0.0539
     42 H6         -0.2217    1.8209    0.9094 H         1 <0>         0.0562
     43 H7         -2.4390    0.7168    1.0248 H         1 <0>         0.0849
     44 H8         -2.7507    1.1657   -0.6691 H         1 <0>         0.0659
     45 H9         -0.7697   -0.1448   -1.3810 H         1 <0>         0.0711
     46 H10        -0.4580   -0.5938    0.3129 H         1 <0>         0.0762
     47 H11        -0.7440   -1.5584    1.6683 H         1 <0>         0.1398
     48 H12        -1.1583   -3.0193    3.6046 H         1 <0>         0.1433
     49 H13        -4.5563   -4.6769    1.6327 H         1 <0>         0.1425
     50 H14        -4.1407   -4.1193   -1.2554 H         1 <0>         0.0917
     51 H15        -5.4452   -3.4015   -0.2861 H         1 <0>         0.0801
     52 H16        -2.2675   -3.7700   -1.8319 H         1 <0>         0.0702
     53 H17        -2.8370   -3.1475   -3.3992 H         1 <0>         0.1045
     54 H18        -0.8058   -1.7363   -3.5768 H         1 <0>         0.0566
     55 H19        -0.2363   -2.3588   -2.0096 H         1 <0>         0.0611
     56 H20         0.8283   -3.5749   -3.8901 H         1 <0>         0.0504
     57 H21        -0.2089   -4.6598   -2.9334 H         1 <0>         0.0524
     58 H22        -0.7785   -4.0373   -4.5007 H         1 <0>         0.0540
     59 H23        -8.2350   -2.9678   -3.4294 H         1 <0>         0.1196
     60 H24        -8.6829   -2.2136   -7.6023 H         1 <0>         0.1223
     61 H25        -5.5609   -0.2931   -5.4233 H         1 <0>         0.1184
     62 H26        -7.1405    0.4603   -7.9922 H         1 <0>         0.0701
     63 H27        -5.5473   -0.3209   -7.8517 H         1 <0>         0.0646
     64 H28        -6.8531   -1.1196   -8.7601 H         1 <0>         0.0658
     65 H29       -10.6723   -3.0530   -5.3618 H         1 <0>         0.0705
     66 H30        -9.8252   -4.0754   -6.5473 H         1 <0>         0.0658
     67 H31        -9.6383   -4.3907   -4.8055 H         1 <0>         0.0654
@<TRIPOS>BOND
     1    1    2 1
     2    1   38 1
     3    1   39 1
     4    1   40 1
     5    2    3 1
     6    2   41 1
     7    2   42 1
     8    3    4 1
     9    3   43 1
    10    3   44 1
    11    4    5 1
    12    4   45 1
    13    4   46 1
    14    5   14 1
    15    5    6 1
    16    6   11 ar
    17    6    7 ar
    18    7    8 ar
    19    7   47 1
    20    8    9 ar
    21    8   48 1
    22    9   10 ar
    23    9   35 1
    24   10   11 ar
    25   10   49 1
    26   11   12 1
    27   12   13 1
    28   12   50 1
    29   12   51 1
    30   13   25 1
    31   13   14 1
    32   13   19 1
    33   14   15 1
    34   14   16 1
    35   16   17 1
    36   16   52 1
    37   16   53 1
    38   17   18 1
    39   17   54 1
    40   17   55 1
    41   18   56 1
    42   18   57 1
    43   18   58 1
    44   19   20 1
    45   19   21 2
    46   21   22 1
    47   22   23 2
    48   22   24 am
    49   24   25 am
    50   24   27 1
    51   25   26 2
    52   27   32 ar
    53   27   28 ar
    54   28   29 ar
    55   28   59 1
    56   29   30 ar
    57   29   34 1
    58   30   31 ar
    59   30   60 1
    60   31   32 ar
    61   31   33 1
    62   32   61 1
    63   33   62 1
    64   33   63 1
    65   33   64 1
    66   34   65 1
    67   34   66 1
    68   34   67 1
    69   35   36 2
    70   35   37 1
@<TRIPOS>MOLECULE
ZINC13297901
   68    71     0     0     0
SMALL
USER_CHARGES

@<TRIPOS>ATOM
      1 C1         -1.9081    1.7436    0.7321 C.3       1 <0>        -0.1532
      2 C2         -2.2421    0.2547    0.8447 C.3       1 <0>         0.0530
      3 O1         -1.3356   -0.4992    0.0374 O.3       1 <0>        -0.3150
      4 C3         -1.4962   -1.8493    0.0253 C.ar      1 <0>         0.1234
      5 C4         -2.5095   -2.4337    0.7710 C.ar      1 <0>        -0.1889
      6 C5         -2.6733   -3.8048    0.7591 C.ar      1 <0>        -0.0759
      7 C6         -1.8233   -4.5985    0.0006 C.ar      1 <0>         0.0998
      8 C7         -0.8093   -4.0130   -0.7456 C.ar      1 <0>        -0.0986
      9 C8         -0.6503   -2.6413   -0.7373 C.ar      1 <0>        -0.1333
     10 N1         -1.9886   -5.9898   -0.0116 N.am      1 <0>        -0.6619
     11 C9         -3.2220   -6.5229    0.0935 C.2       1 <0>         0.5337
     12 O2         -4.1962   -5.8003    0.1023 O.2       1 <0>        -0.4944
     13 C10        -3.3907   -8.0166    0.2002 C.3       1 <0>        -0.1735
     14 S1         -5.1551   -8.4183    0.3271 S.3       1 <0>         0.0302
     15 C11        -5.1848  -10.1762    0.4430 C.2       1 <0>         0.1475
     16 C12        -6.3728  -10.8298    0.5477 C.2       1 <0>        -0.0889
     17 C13        -6.4275  -12.3263    0.6400 C.3       1 <0>         0.0929
     18 H1         -7.1693  -12.6116    1.3859 H         1 <0>         0.0969
     19 C14        -5.0877  -12.8967    1.0317 C.2       1 <0>        -0.2615
     20 C15        -3.9588  -12.1674    0.9034 C.2       1 <0>         0.2192
     21 N2         -4.0066  -10.8859    0.4217 N.pl3     1 <0>        -0.6398
     22 C16        -2.6151  -12.7440    1.2766 C.3       1 <0>        -0.0888
     23 C17        -2.7864  -13.7496    2.4171 C.3       1 <0>        -0.0517
     24 C18        -3.7540  -14.8452    1.9575 C.3       1 <0>        -0.1594
     25 C19        -5.0496  -14.2085    1.5352 C.2       1 <0>         0.4057
     26 O3         -6.0832  -14.8402    1.6314 O.2       1 <0>        -0.4620
     27 C20        -1.4317  -14.3717    2.7619 C.3       1 <0>        -0.1423
     28 C21        -3.3589  -13.0406    3.6461 C.3       1 <0>        -0.1532
     29 C22        -6.8309  -12.8896   -0.6983 C.ar      1 <0>        -0.1106
     30 C23        -6.0471  -12.6511   -1.8121 C.ar      1 <0>        -0.0646
     31 C24        -6.4149  -13.1659   -3.0401 C.ar      1 <0>        -0.1539
     32 C25        -7.5716  -13.9231   -3.1552 C.ar      1 <0>         0.1271
     33 C26        -8.3562  -14.1614   -2.0361 C.ar      1 <0>        -0.2064
     34 C27        -7.9812  -13.6487   -0.8093 C.ar      1 <0>        -0.0565
     35 O4         -7.9359  -14.4303   -4.3623 O.3       1 <0>        -0.3188
     36 C28        -9.1388  -15.2004   -4.4061 C.3       1 <0>         0.0268
     37 C29        -7.5911  -10.0775    0.5707 C.1       1 <0>         0.2537
     38 N3         -8.5576   -9.4808    0.5889 N.1       1 <0>        -0.4015
     39 H2         -2.5996    2.3187    1.3479 H         1 <0>         0.0798
     40 H3         -0.8878    1.9141    1.0756 H         1 <0>         0.0669
     41 H4         -1.9990    2.0587   -0.3074 H         1 <0>         0.0671
     42 H5         -2.1513   -0.0604    1.8842 H         1 <0>         0.0630
     43 H6         -3.2625    0.0843    0.5013 H         1 <0>         0.0634
     44 H7         -3.1703   -1.8162    1.3613 H         1 <0>         0.1329
     45 H8         -3.4620   -4.2596    1.3400 H         1 <0>         0.1374
     46 H9         -0.1477   -4.6299   -1.3355 H         1 <0>         0.1344
     47 H10         0.1356   -2.1854   -1.3211 H         1 <0>         0.1374
     48 H11        -1.2153   -6.5693   -0.0956 H         1 <0>         0.4128
     49 H12        -2.9723   -8.4937   -0.6860 H         1 <0>         0.1249
     50 H13        -2.8709   -8.3785    1.0873 H         1 <0>         0.1281
     51 H14        -3.2035  -10.4738    0.0664 H         1 <0>         0.4151
     52 H15        -2.1830  -13.2467    0.4113 H         1 <0>         0.1024
     53 H16        -1.9520  -11.9406    1.5976 H         1 <0>         0.0911
     54 H17        -3.3209  -15.3844    1.1150 H         1 <0>         0.1018
     55 H18        -3.9384  -15.5372    2.7793 H         1 <0>         0.0989
     56 H19        -0.7402  -13.5879    3.0713 H         1 <0>         0.0614
     57 H20        -1.5568  -15.0874    3.5744 H         1 <0>         0.0653
     58 H21        -1.0331  -14.8828    1.8856 H         1 <0>         0.0614
     59 H22        -4.3276  -12.6073    3.3972 H         1 <0>         0.0611
     60 H23        -3.4798  -13.7592    4.4567 H         1 <0>         0.0645
     61 H24        -2.6771  -12.2501    3.9600 H         1 <0>         0.0606
     62 H25        -5.1467  -12.0616   -1.7220 H         1 <0>         0.1191
     63 H26        -5.8027  -12.9788   -3.9099 H         1 <0>         0.1282
     64 H27        -9.2571  -14.7505   -2.1231 H         1 <0>         0.1279
     65 H28        -8.5893  -13.8375    0.0631 H         1 <0>         0.1257
     66 H29        -9.3130  -15.5444   -5.4256 H         1 <0>         0.1002
     67 H30        -9.0439  -16.0607   -3.7435 H         1 <0>         0.0560
     68 H31        -9.9772  -14.5834   -4.0826 H         1 <0>         0.0557
@<TRIPOS>BOND
     1    1    2 1
     2    1   39 1
     3    1   40 1
     4    1   41 1
     5    2    3 1
     6    2   42 1
     7    2   43 1
     8    3    4 1
     9    4    9 ar
    10    4    5 ar
    11    5    6 ar
    12    5   44 1
    13    6    7 ar
    14    6   45 1
    15    7    8 ar
    16    7   10 1
    17    8    9 ar
    18    8   46 1
    19    9   47 1
    20   10   11 am
    21   10   48 1
    22   11   12 2
    23   11   13 1
    24   13   14 1
    25   13   49 1
    26   13   50 1
    27   14   15 1
    28   15   21 1
    29   15   16 2
    30   16   17 1
    31   16   37 1
    32   17   18 1
    33   17   19 1
    34   17   29 1
    35   19   25 1
    36   19   20 2
    37   20   21 1
    38   20   22 1
    39   21   51 1
    40   22   23 1
    41   22   52 1
    42   22   53 1
    43   23   24 1
    44   23   27 1
    45   23   28 1
    46   24   25 1
    47   24   54 1
    48   24   55 1
    49   25   26 2
    50   27   56 1
    51   27   57 1
    52   27   58 1
    53   28   59 1
    54   28   60 1
    55   28   61 1
    56   29   34 ar
    57   29   30 ar
    58   30   31 ar
    59   30   62 1
    60   31   32 ar
    61   31   63 1
    62   32   33 ar
    63   32   35 1
    64   33   34 ar
    65   33   64 1
    66   34   65 1
    67   35   36 1
    68   36   66 1
    69   36   67 1
    70   36   68 1
    71   37   38 3
@<TRIPOS>MOLECULE
ZINC01065609
   42    45     0     0     0
SMALL
USER_CHARGES
N-cyclopropyl-2-[[6-[(3,5-dibromo-2-hydroxy-phenyl)methyleneamino]-1,3-benzothiazol-2-yl]sulfanyl]acetamide
@<TRIPOS>ATOM
      1 C1          2.9515    6.0917    0.8928 C.ar      1 <0>        -0.1330
      2 C2          1.7006    6.3158    1.3700 C.ar      1 <0>        -0.0301
      3 C3          0.9056    5.2535    1.8632 C.ar      1 <0>         0.0500
      4 C4          1.4865    3.9631    1.8286 C.ar      1 <0>        -0.1046
      5 C5          2.7476    3.7321    1.3493 C.ar      1 <0>        -0.1106
      6 C6          3.5054    4.8052    0.8692 C.ar      1 <0>         0.1741
      7 N1          4.7681    4.6017    0.3847 N.2       1 <0>        -0.5482
      8 C7          5.0643    4.9594   -0.8336 C.2       1 <0>         0.2967
      9 C8          4.0014    5.3979   -1.7502 C.ar      1 <0>        -0.2915
     10 C9          2.7004    4.9048   -1.6060 C.ar      1 <0>         0.0103
     11 C10         1.7086    5.3202   -2.4689 C.ar      1 <0>        -0.2146
     12 C11         1.9948    6.2247   -3.4795 C.ar      1 <0>         0.0082
     13 C12         3.2761    6.7196   -3.6330 C.ar      1 <0>        -0.2148
     14 C13         4.2849    6.3175   -2.7709 C.ar      1 <0>         0.3320
     15 O1          5.5424    6.8077   -2.9170 O.3       1 <0>        -0.6600
     16 Br1         3.6521    7.9535   -5.0158 Br        1 <0>        -0.0768
     17 Br2        -0.0498    4.6526   -2.2734 Br        1 <0>        -0.0882
     18 S1          0.1992    2.9490    2.5153 S.3       1 <0>         0.0286
     19 C14        -0.9892    4.2540    2.7961 C.2       1 <0>         0.0751
     20 N2         -0.3460    5.3168    2.3655 N.2       1 <0>        -0.4835
     21 S2         -2.6106    4.1442    3.4771 S.3       1 <0>         0.1039
     22 C15        -3.1006    5.8851    3.4043 C.3       1 <0>        -0.1562
     23 C16        -4.4964    6.0374    3.9517 C.2       1 <0>         0.5387
     24 O2         -5.1003    5.0647    4.3517 O.2       1 <0>        -0.5299
     25 N3         -5.0735    7.2545    3.9968 N.am      1 <0>        -0.7278
     26 C17        -6.4303    7.4025    4.5290 C.3       1 <0>        -0.0214
     27 C18        -7.3970    8.3041    3.7584 C.3       1 <0>        -0.1462
     28 C19        -6.8207    8.7678    5.0986 C.3       1 <0>        -0.1388
     29 H1          3.5327    6.9237    0.5235 H         1 <0>         0.1326
     30 H2          1.3053    7.3208    1.3730 H         1 <0>         0.1281
     31 H3          3.1532    2.7311    1.3411 H         1 <0>         0.1336
     32 H4          6.1094    4.9332   -1.1758 H         1 <0>         0.1706
     33 H5          2.4732    4.1997   -0.8201 H         1 <0>         0.1210
     34 H6          1.2117    6.5449   -4.1508 H         1 <0>         0.1163
     35 H7         -2.4034    6.4877    4.0050 H         1 <0>         0.1278
     36 H8         -3.0768    6.2294    2.3598 H         1 <0>         0.1287
     37 H9         -4.5257    8.1367    3.6340 H         1 <0>         0.4117
     38 H10        -6.4302    6.3630    4.8887 H         1 <0>         0.1601
     39 H11        -6.9714    8.5393    2.7717 H         1 <0>         0.1050
     40 H12        -8.3582    7.7851    3.6289 H         1 <0>         0.1091
     41 H13        -7.3057    8.6320    6.0765 H         1 <0>         0.1096
     42 H14        -5.9190    9.3862    5.2193 H         1 <0>         0.1044
@<TRIPOS>BOND
     1    1    6 ar
     2    1    2 ar
     3    1   29 1
     4    2    3 ar
     5    2   30 1
     6    3   20 1
     7    3    4 ar
     8    4    5 ar
     9    4   18 1
    10    5    6 ar
    11    5   31 1
    12    6    7 1
    13    7    8 2
    14    8    9 1
    15    8   32 1
    16    9   14 ar
    17    9   10 ar
    18   10   11 ar
    19   10   33 1
    20   11   12 ar
    21   11   17 1
    22   12   13 ar
    23   12   34 1
    24   13   14 ar
    25   13   16 1
    26   14   15 1
    27   18   19 1
    28   19   20 2
    29   19   21 1
    30   21   22 1
    31   22   23 1
    32   22   35 1
    33   22   36 1
    34   23   24 2
    35   23   25 am
    36   25   26 1
    37   25   37 1
    38   26   28 1
    39   26   27 1
    40   26   38 1
    41   27   28 1
    42   27   39 1
    43   27   40 1
    44   28   41 1
    45   28   42 1
@<TRIPOS>MOLECULE
ZINC35698204
   60    63     0     0     0
SMALL
USER_CHARGES

@<TRIPOS>ATOM
      1 C1         -0.2320   -3.7436    1.0414 C.3       1 <0>        -0.1693
      2 C2         -1.5781   -3.4071    1.6861 C.3       1 <0>         0.1094
      3 N1         -2.1687   -2.2504    1.0083 N.am      1 <0>        -0.6142
      4 C3         -3.0198   -2.4465   -0.1679 C.3       1 <0>         0.1129
      5 C4         -4.4751   -2.6061    0.2765 C.3       1 <0>        -0.1654
      6 C5         -1.9290   -1.0059    1.4667 C.2       1 <0>         0.6085
      7 O1         -2.5004   -0.0516    0.9671 O.2       1 <0>        -0.5365
      8 C6         -1.0220   -0.8084    2.5188 C.2       1 <0>        -0.3703
      9 C7         -1.3912   -1.0322    3.8296 C.2       1 <0>         0.2273
     10 N2         -0.5252   -0.8419    4.8127 N.2       1 <0>        -0.5940
     11 C8          0.7180   -0.4394    4.6510 C.2       1 <0>         0.3246
     12 N3          1.2784   -0.1641    3.4348 N.pl3     1 <0>        -0.5244
     13 C9          0.3943   -0.3494    2.2533 C.3       1 <0>         0.2713
     14 H1          0.8636   -1.0757    1.5897 H         1 <0>         0.0694
     15 C10         0.3261    0.9653    1.5198 C.ar      1 <0>        -0.0599
     16 C11         0.4700    0.9978    0.1453 C.ar      1 <0>        -0.0875
     17 C12         0.4076    2.2033   -0.5280 C.ar      1 <0>        -0.1072
     18 C13         0.2009    3.3775    0.1739 C.ar      1 <0>        -0.0320
     19 C14         0.0570    3.3442    1.5495 C.ar      1 <0>        -0.1058
     20 C15         0.1140    2.1376    2.2211 C.ar      1 <0>        -0.0711
     21 Cl1         0.1229    4.8920   -0.6710 Cl        1 <0>        -0.0858
     22 C16         2.5963    0.2478    3.4307 C.2       1 <0>         0.2360
     23 C17         3.2260    0.3461    4.6221 C.2       1 <0>        -0.3052
     24 S1          1.9449   -0.1463    5.7582 S.3       1 <0>         0.1142
     25 C18         3.2899    0.5676    2.1747 C.2       1 <0>        -0.4677
     26 C19         4.6116    0.8265    2.1823 C.2       1 <0>         0.5013
     27 O2          5.3263    0.6699    3.3232 O.3       1 <0>        -0.7027
     28 N4          5.2402    1.2528    1.0245 N.pl3     1 <0>        -0.7529
     29 C20         6.6947    1.4266    1.0022 C.3       1 <0>         0.2193
     30 C21         7.1108    2.0086   -0.3242 C.2       1 <0>        -0.0160
     31 C22         7.2190    3.3187   -0.6092 C.2       1 <0>        -0.1989
     32 C23         7.6340    3.4117   -1.9575 C.2       1 <0>        -0.2157
     33 C24         7.7546    2.1528   -2.4158 C.2       1 <0>        -0.0465
     34 O3          7.4419    1.3070   -1.4205 O.3       1 <0>        -0.1737
     35 C25        -2.7902   -1.4960    4.1441 C.3       1 <0>        -0.1017
     36 H2          0.2484   -4.5462    1.6011 H         1 <0>         0.0634
     37 H3         -0.3921   -4.0640    0.0120 H         1 <0>         0.0539
     38 H4          0.4068   -2.8605    1.0519 H         1 <0>         0.0590
     39 H5         -2.2480   -4.2622    1.5959 H         1 <0>         0.0717
     40 H6         -1.4278   -3.1730    2.7400 H         1 <0>         0.0820
     41 H7         -2.9337   -1.5825   -0.8268 H         1 <0>         0.0790
     42 H8         -2.7022   -3.3428   -0.7008 H         1 <0>         0.0702
     43 H9         -5.1083   -2.7520   -0.5986 H         1 <0>         0.0603
     44 H10        -4.5611   -3.4702    0.9354 H         1 <0>         0.0527
     45 H11        -4.7926   -1.7099    0.8094 H         1 <0>         0.0597
     46 H12         0.6317    0.0812   -0.4025 H         1 <0>         0.1198
     47 H13         0.5204    2.2286   -1.6018 H         1 <0>         0.1266
     48 H14        -0.1040    4.2605    2.0980 H         1 <0>         0.1265
     49 H15        -0.0031    2.1109    3.2944 H         1 <0>         0.1148
     50 H16         4.2422    0.6461    4.8315 H         1 <0>         0.2298
     51 H17         2.7396    0.5948    1.2458 H         1 <0>         0.0867
     52 H18         4.7176    1.4363    0.2282 H         1 <0>         0.3876
     53 H19         6.9923    2.1017    1.8046 H         1 <0>         0.0883
     54 H20         7.1783    0.4599    1.1426 H         1 <0>         0.0642
     55 H21         7.0255    4.1417    0.0629 H         1 <0>         0.1481
     56 H22         7.8185    4.3193   -2.5130 H         1 <0>         0.1459
     57 H23         8.0556    1.8700   -3.4138 H         1 <0>         0.1996
     58 H24        -2.8043   -2.5833    4.2188 H         1 <0>         0.0753
     59 H25        -3.1124   -1.0625    5.0908 H         1 <0>         0.0773
     60 H26        -3.4656   -1.1776    3.3500 H         1 <0>         0.0679
@<TRIPOS>BOND
     1    1    2 1
     2    1   36 1
     3    1   37 1
     4    1   38 1
     5    2    3 1
     6    2   39 1
     7    2   40 1
     8    3    4 1
     9    3    6 am
    10    4    5 1
    11    4   41 1
    12    4   42 1
    13    5   43 1
    14    5   44 1
    15    5   45 1
    16    6    7 2
    17    6    8 1
    18    8   13 1
    19    8    9 2
    20    9   10 1
    21    9   35 1
    22   10   11 2
    23   11   24 1
    24   11   12 1
    25   12   13 1
    26   12   22 1
    27   13   14 1
    28   13   15 1
    29   15   20 ar
    30   15   16 ar
    31   16   17 ar
    32   16   46 1
    33   17   18 ar
    34   17   47 1
    35   18   19 ar
    36   18   21 1
    37   19   20 ar
    38   19   48 1
    39   20   49 1
    40   22   23 2
    41   22   25 1
    42   23   24 1
    43   23   50 1
    44   25   26 2
    45   25   51 1
    46   26   27 1
    47   26   28 1
    48   28   29 1
    49   28   52 1
    50   29   30 1
    51   29   53 1
    52   29   54 1
    53   30   34 1
    54   30   31 2
    55   31   32 1
    56   31   55 1
    57   32   33 2
    58   32   56 1
    59   33   34 1
    60   33   57 1
    61   35   58 1
    62   35   59 1
    63   35   60 1
@<TRIPOS>MOLECULE
ZINC43736747
   81    85     0     0     0
SMALL
USER_CHARGES

@<TRIPOS>ATOM
      1 C1          2.6623    1.1639    1.6131 C.3       1 <0>        -0.1436
      2 C2          2.7446   -0.3464    1.8541 C.3       1 <0>        -0.0218
      3 C3          4.0927   -0.8387    1.2508 C.3       1 <0>        -0.1164
      4 C4          4.7038   -1.9938    2.0346 C.3       1 <0>        -0.0794
      5 C5          4.9399   -1.5016    3.5447 C.3       1 <0>        -0.1178
      6 C6          3.6124   -1.1609    4.0973 C.2       1 <0>        -0.0184
      7 C7          2.6624   -0.5564    3.3862 C.2       1 <0>        -0.1579
      8 C8          1.4211   -0.1763    3.9700 C.2       1 <0>         0.0633
      9 C9          1.4252    0.4599    5.1898 C.2       1 <0>        -0.2751
     10 C10         0.2059    0.8554    5.8342 C.2       1 <0>         0.4094
     11 O1          0.2227    1.4967    6.8468 O.2       1 <0>        -0.4659
     12 C11        -1.1331    0.4113    5.3081 C.3       1 <0>        -0.1264
     13 H1         -1.2573   -0.6911    5.5386 H         1 <0>         0.1038
     14 C12        -2.3001    1.1174    5.8650 C.3       1 <0>         0.0025
     15 C13        -2.3866    0.8697    7.3211 C.3       1 <0>        -0.1230
     16 C14        -2.8137   -0.5622    7.6660 C.3       1 <0>        -0.1465
     17 C15        -4.2186   -0.7621    7.1831 C.3       1 <0>         0.1111
     18 H2         -4.9104   -0.0320    7.6476 H         1 <0>         0.0553
     19 C16        -4.3116   -0.5640    5.6685 C.3       1 <0>        -0.0467
     20 C17        -3.5700    0.7086    5.1802 C.3       1 <0>        -0.0721
     21 H3         -4.3056    1.5404    5.5265 H         1 <0>         0.0399
     22 C18        -3.5305    0.8749    3.6426 C.3       1 <0>        -0.0969
     23 C19        -2.2778    0.1161    3.0660 C.3       1 <0>        -0.1173
     24 C20        -1.0257    0.4319    3.7324 C.3       1 <0>        -0.0217
     25 C21         0.0886   -0.5778    3.2730 C.3       1 <0>        -0.0194
     26 C22         0.2542   -0.5250    1.7660 C.3       1 <0>        -0.0988
     27 C23         1.5005   -1.0238    1.2358 C.3       1 <0>        -0.0992
     28 C24        -0.2998   -2.0186    3.7022 C.3       1 <0>        -0.1445
     29 C25        -0.5504    1.8592    3.2987 C.3       1 <0>        -0.1674
     30 C26        -3.6237   -1.7851    5.0077 C.3       1 <0>        -0.1482
     31 C27        -5.7644   -0.4899    5.1957 C.3       1 <0>        -0.1337
     32 O2         -4.6491   -2.0108    7.4325 O.3       1 <0>        -0.3394
     33 C28        -5.2894   -2.1624    8.7010 C.3       1 <0>         0.2365
     34 O3         -6.5968   -1.5883    8.6462 O.3       1 <0>        -0.5953
     35 C29        -2.1390    2.6444    5.7199 C.3       1 <0>        -0.1553
     36 C30         5.9603   -0.4645    3.5825 C.3       1 <0>        -0.0971
     37 C31         5.4379   -2.7600    4.2769 C.2       1 <0>         0.5023
     38 O4          6.1973   -2.6534    5.2247 O.co2     1 <0>        -0.6928
     39 O5          5.0729   -3.8637    3.9093 O.co2     1 <0>        -0.6872
     40 H4          3.4925    1.6581    2.1178 H         1 <0>         0.0526
     41 H5          2.7163    1.3645    0.5431 H         1 <0>         0.0491
     42 H6          1.7197    1.5438    2.0069 H         1 <0>         0.0564
     43 H7          3.8355   -1.1584    0.2051 H         1 <0>         0.0559
     44 H8          4.7899    0.0503    1.2472 H         1 <0>         0.0634
     45 H9          3.9465   -2.8665    1.9745 H         1 <0>         0.0731
     46 H10         5.5958   -2.2083    1.5990 H         1 <0>         0.0548
     47 H11         3.4256   -1.2031    5.1648 H         1 <0>         0.0975
     48 H12         2.3309    0.6561    5.6733 H         1 <0>         0.1247
     49 H13        -1.4171    1.0947    7.8230 H         1 <0>         0.0938
     50 H14        -3.0981    1.5485    7.8017 H         1 <0>         0.0534
     51 H15        -2.1636   -1.2785    7.2011 H         1 <0>         0.0664
     52 H16        -2.7476   -0.7730    8.7203 H         1 <0>         0.0597
     53 H17        -4.3724    0.4110    3.2399 H         1 <0>         0.0657
     54 H18        -3.5025    1.9027    3.4198 H         1 <0>         0.0677
     55 H19        -2.4849   -0.9271    2.9842 H         1 <0>         0.0810
     56 H20        -2.1955    0.5324    1.9807 H         1 <0>         0.0530
     57 H21        -0.5018   -1.2879    1.4332 H         1 <0>         0.0556
     58 H22        -0.0422    0.4256    1.4100 H         1 <0>         0.0813
     59 H23         1.5938   -0.7553    0.1563 H         1 <0>         0.0605
     60 H24         1.6643   -2.0339    1.3459 H         1 <0>         0.0698
     61 H25        -0.4285   -2.0531    4.7841 H         1 <0>         0.0584
     62 H26        -1.2328   -2.3035    3.2160 H         1 <0>         0.0673
     63 H27         0.4893   -2.7105    3.4080 H         1 <0>         0.0675
     64 H28         0.3423    2.1315    3.8618 H         1 <0>         0.0602
     65 H29        -0.3213    1.8577    2.2330 H         1 <0>         0.0612
     66 H30        -1.3411    2.5821    3.4994 H         1 <0>         0.0660
     67 H31        -4.1373   -2.6982    5.3085 H         1 <0>         0.0573
     68 H32        -3.6676   -1.6840    3.9233 H         1 <0>         0.0576
     69 H33        -2.5824   -1.8321    5.3264 H         1 <0>         0.0575
     70 H34        -6.2627    0.3485    5.6825 H         1 <0>         0.0488
     71 H35        -5.7881   -0.3489    4.1151 H         1 <0>         0.0570
     72 H36        -6.2778   -1.4165    5.4525 H         1 <0>         0.0606
     73 H37        -5.3678   -3.2220    8.9442 H         1 <0>         0.0840
     74 H38        -4.7021   -1.6563    9.4672 H         1 <0>         0.0414
     75 H39        -7.0908   -1.6551    9.4749 H         1 <0>         0.3929
     76 H40        -2.3021    2.9298    4.6806 H         1 <0>         0.0603
     77 H41        -2.8683    3.1486    6.3539 H         1 <0>         0.0501
     78 H42        -1.1327    2.9339    6.0226 H         1 <0>         0.0682
     79 H43         5.6393    0.3834    2.9773 H         1 <0>         0.0385
     80 H44         6.1105   -0.1398    4.6121 H         1 <0>         0.0566
     81 H45         6.8955   -0.8602    3.1863 H         1 <0>         0.0543
@<TRIPOS>BOND
     1    1    2 1
     2    1   40 1
     3    1   41 1
     4    1   42 1
     5    2    7 1
     6    2   27 1
     7    2    3 1
     8    3    4 1
     9    3   43 1
    10    3   44 1
    11    4    5 1
    12    4   45 1
    13    4   46 1
    14    5    6 1
    15    5   36 1
    16    5   37 1
    17    6    7 2
    18    6   47 1
    19    7    8 1
    20    8   25 1
    21    8    9 2
    22    9   10 1
    23    9   48 1
    24   10   11 2
    25   10   12 1
    26   12   13 1
    27   12   24 1
    28   12   14 1
    29   14   20 1
    30   14   15 1
    31   14   35 1
    32   15   16 1
    33   15   49 1
    34   15   50 1
    35   16   17 1
    36   16   51 1
    37   16   52 1
    38   17   18 1
    39   17   19 1
    40   17   32 1
    41   19   20 1
    42   19   30 1
    43   19   31 1
    44   20   21 1
    45   20   22 1
    46   22   23 1
    47   22   53 1
    48   22   54 1
    49   23   24 1
    50   23   55 1
    51   23   56 1
    52   24   25 1
    53   24   29 1
    54   25   26 1
    55   25   28 1
    56   26   27 1
    57   26   57 1
    58   26   58 1
    59   27   59 1
    60   27   60 1
    61   28   61 1
    62   28   62 1
    63   28   63 1
    64   29   64 1
    65   29   65 1
    66   29   66 1
    67   30   67 1
    68   30   68 1
    69   30   69 1
    70   31   70 1
    71   31   71 1
    72   31   72 1
    73   32   33 1
    74   33   34 1
    75   33   73 1
    76   33   74 1
    77   34   75 1
    78   35   76 1
    79   35   77 1
    80   35   78 1
    81   36   79 1
    82   36   80 1
    83   36   81 1
    84   37   38 2
    85   37   39 1
@<TRIPOS>MOLECULE
ZINC54201817
   47    50     0     0     0
SMALL
USER_CHARGES

@<TRIPOS>ATOM
      1 C1          6.3931    0.7856   -1.1043 C.3       1 <0>        -0.1120
      2 C2          5.9054   -0.6374   -1.0131 C.ar      1 <0>        -0.1062
      3 C3          6.4527   -1.4957   -0.0772 C.ar      1 <0>        -0.0999
      4 C4          6.0079   -2.8004    0.0089 C.ar      1 <0>        -0.1211
      5 C5          5.0096   -3.2499   -0.8454 C.ar      1 <0>         0.1443
      6 C6          4.4616   -2.3853   -1.7839 C.ar      1 <0>        -0.1436
      7 C7          4.9074   -1.0804   -1.8617 C.ar      1 <0>        -0.1010
      8 N1          4.5570   -4.5712   -0.7610 N.am      1 <0>        -0.6677
      9 C8          4.6010   -5.2247    0.4169 C.2       1 <0>         0.5385
     10 O1          4.9575   -4.6434    1.4199 O.2       1 <0>        -0.5019
     11 C9          4.2071   -6.6776    0.4878 C.3       1 <0>        -0.1544
     12 S1          4.3715   -7.2660    2.1958 S.3       1 <0>         0.0910
     13 C10         3.8813   -8.9565    2.1133 C.2       1 <0>        -0.0672
     14 N2          3.4847   -9.6787    1.0756 N.2       1 <0>        -0.2470
     15 N3          3.1653  -10.8933    1.1916 N.2       1 <0>        -0.3290
     16 C11         3.2063  -11.5211    2.3558 C.2       1 <0>         0.3280
     17 S2          3.7844  -10.1913    3.4063 S.3       1 <0>        -0.0092
     18 N4          2.8951  -12.8395    2.6721 N.2       1 <0>        -0.5171
     19 C12         2.4715  -13.6978    1.6913 C.2       1 <0>         0.4580
     20 N5          2.3059  -13.4531    0.4008 N.2       1 <0>        -0.6638
     21 C13         1.8906  -14.3708   -0.4436 C.2       1 <0>         0.5331
     22 O2          1.7422  -14.1331   -1.6315 O.2       1 <0>        -0.5069
     23 C14         1.6129  -15.7111    0.1271 C.2       1 <0>        -0.1905
     24 C15         1.1795  -16.8422   -0.4828 C.2       1 <0>        -0.0126
     25 C16         1.2045  -18.1220    0.2391 C.ar      1 <0>        -0.0564
     26 C17         0.5797  -19.2494   -0.3063 C.ar      1 <0>        -0.0872
     27 C18         0.6073  -20.4461    0.3767 C.ar      1 <0>        -0.1134
     28 C19         1.2515  -20.5349    1.6003 C.ar      1 <0>        -0.0325
     29 C20         1.8719  -19.4229    2.1468 C.ar      1 <0>        -0.1039
     30 C21         1.8581  -18.2209    1.4728 C.ar      1 <0>        -0.0942
     31 Cl1         1.2809  -22.0466    2.4531 Cl        1 <0>        -0.0749
     32 S3          2.0170  -15.4182    1.8445 S.3       1 <0>        -0.0769
     33 H1          5.8006    1.4159   -0.4412 H         1 <0>         0.0685
     34 H2          7.4410    0.8302   -0.8077 H         1 <0>         0.0651
     35 H3          6.2905    1.1398   -2.1301 H         1 <0>         0.0644
     36 H4          7.2291   -1.1455    0.5868 H         1 <0>         0.1251
     37 H5          6.4363   -3.4705    0.7396 H         1 <0>         0.1420
     38 H6          3.6853   -2.7320   -2.4499 H         1 <0>         0.1262
     39 H7          4.4788   -0.4064   -2.5886 H         1 <0>         0.1249
     40 H8          4.2117   -5.0170   -1.5503 H         1 <0>         0.4154
     41 H9          3.1727   -6.7898    0.1628 H         1 <0>         0.1264
     42 H10         4.8577   -7.2625   -0.1623 H         1 <0>         0.1274
     43 H11         0.8161  -16.8024   -1.4991 H         1 <0>         0.1526
     44 H12         0.0769  -19.1817   -1.2597 H         1 <0>         0.1379
     45 H13         0.1253  -21.3169   -0.0427 H         1 <0>         0.1348
     46 H14         2.3714  -19.4996    3.1013 H         1 <0>         0.1369
     47 H15         2.3466  -17.3564    1.8976 H         1 <0>         0.1500
@<TRIPOS>BOND
     1    1    2 1
     2    1   33 1
     3    1   34 1
     4    1   35 1
     5    2    7 ar
     6    2    3 ar
     7    3    4 ar
     8    3   36 1
     9    4    5 ar
    10    4   37 1
    11    5    6 ar
    12    5    8 1
    13    6    7 ar
    14    6   38 1
    15    7   39 1
    16    8    9 am
    17    8   40 1
    18    9   10 2
    19    9   11 1
    20   11   12 1
    21   11   41 1
    22   11   42 1
    23   12   13 1
    24   13   17 1
    25   13   14 2
    26   14   15 1
    27   15   16 2
    28   16   17 1
    29   16   18 1
    30   18   19 1
    31   19   32 1
    32   19   20 2
    33   20   21 1
    34   21   22 2
    35   21   23 1
    36   23   24 2
    37   23   32 1
    38   24   25 1
    39   24   43 1
    40   25   30 ar
    41   25   26 ar
    42   26   27 ar
    43   26   44 1
    44   27   28 ar
    45   27   45 1
    46   28   29 ar
    47   28   31 1
    48   29   30 ar
    49   29   46 1
    50   30   47 1
@<TRIPOS>MOLECULE
ZINC09613879
   47    50     0     0     0
SMALL
USER_CHARGES

@<TRIPOS>ATOM
      1 C1         -0.0145    1.5403    0.0277 C.3       1 <0>        -0.1429
      2 C2          0.0025    0.0106    0.0075 C.3       1 <0>        -0.1054
      3 H1          0.5112   -0.3353   -0.8924 H         1 <0>         0.1256
      4 C3          0.7310   -0.4998    1.2240 C.2       1 <0>         0.5437
      5 O1          0.1046   -0.8937    2.1851 O.2       1 <0>        -0.4952
      6 N1          2.0785   -0.5187    1.2440 N.am      1 <0>        -0.6635
      7 C4          2.7561   -0.8827    2.4135 C.ar      1 <0>         0.1708
      8 C5          2.1432   -0.7275    3.6497 C.ar      1 <0>        -0.0749
      9 C6          2.8141   -1.0881    4.8019 C.ar      1 <0>        -0.1571
     10 C7          4.0954   -1.6030    4.7259 C.ar      1 <0>        -0.0826
     11 C8          4.7093   -1.7591    3.4969 C.ar      1 <0>        -0.0874
     12 C9          4.0413   -1.4057    2.3395 C.ar      1 <0>        -0.0446
     13 Cl1         4.8096   -1.6086    0.7960 Cl        1 <0>        -0.0466
     14 C10         2.1492   -0.9197    6.1437 C.3       1 <0>         0.5117
     15 F1          1.4477   -2.0864    6.4662 F         1 <0>        -0.1720
     16 F2          3.1222   -0.6759    7.1190 F         1 <0>        -0.1764
     17 F3          1.2605    0.1595    6.0917 F         1 <0>        -0.1718
     18 S1         -1.7008   -0.6132    0.0167 S.3       1 <0>         0.0456
     19 C11        -2.3653   -0.0611   -1.5190 C.ar      1 <0>         0.3711
     20 N2         -1.5875    0.6387   -2.3386 N.ar      1 <0>        -0.6340
     21 C12        -2.0392    1.0768   -3.5047 C.ar      1 <0>         0.5089
     22 O2         -1.2395    1.7885   -4.3331 O.3       1 <0>        -0.6672
     23 C13        -3.3684    0.7856   -3.8632 C.ar      1 <0>        -0.3621
     24 C14        -4.1784    1.0725   -4.9844 C.2       1 <0>         0.1371
     25 N3         -5.3559    0.5506   -4.7887 N.2       1 <0>        -0.2992
     26 N4         -5.3852   -0.0981   -3.5477 N.pl3     1 <0>        -0.3482
     27 C15        -4.1577    0.0409   -2.9642 C.ar      1 <0>         0.3716
     28 N5         -3.6184   -0.3628   -1.8164 N.ar      1 <0>        -0.5950
     29 C16        -6.4832   -0.7728   -2.9996 C.ar      1 <0>         0.1829
     30 C17        -6.2862   -1.9082   -2.2247 C.ar      1 <0>        -0.1192
     31 C18        -7.3711   -2.5710   -1.6852 C.ar      1 <0>        -0.1001
     32 C19        -8.6525   -2.1052   -1.9160 C.ar      1 <0>        -0.1383
     33 C20        -8.8521   -0.9752   -2.6876 C.ar      1 <0>        -0.1063
     34 C21        -7.7710   -0.3045   -3.2252 C.ar      1 <0>        -0.1247
     35 H2          1.0090    1.9152    0.0221 H         1 <0>         0.0618
     36 H3         -0.5414    1.9095   -0.8522 H         1 <0>         0.1056
     37 H4         -0.5232    1.8862    0.9275 H         1 <0>         0.0650
     38 H5          2.5787   -0.2799    0.4479 H         1 <0>         0.4208
     39 H6          1.1429   -0.3249    3.7103 H         1 <0>         0.1705
     40 H7          4.6178   -1.8833    5.6286 H         1 <0>         0.1463
     41 H8          5.7101   -2.1612    3.4409 H         1 <0>         0.1502
     42 H9         -3.8731    1.6311   -5.8568 H         1 <0>         0.1888
     43 H10        -5.2857   -2.2727   -2.0443 H         1 <0>         0.1354
     44 H11        -7.2185   -3.4543   -1.0827 H         1 <0>         0.1268
     45 H12        -9.4992   -2.6253   -1.4930 H         1 <0>         0.1216
     46 H13        -9.8541   -0.6141   -2.8663 H         1 <0>         0.1246
     47 H14        -7.9272    0.5808   -3.8237 H         1 <0>         0.1283
@<TRIPOS>BOND
     1    1    2 1
     2    1   35 1
     3    1   36 1
     4    1   37 1
     5    2    3 1
     6    2    4 1
     7    2   18 1
     8    4    5 2
     9    4    6 am
    10    6    7 1
    11    6   38 1
    12    7   12 ar
    13    7    8 ar
    14    8    9 ar
    15    8   39 1
    16    9   10 ar
    17    9   14 1
    18   10   11 ar
    19   10   40 1
    20   11   12 ar
    21   11   41 1
    22   12   13 1
    23   14   15 1
    24   14   16 1
    25   14   17 1
    26   18   19 1
    27   19   28 ar
    28   19   20 ar
    29   20   21 ar
    30   21   22 1
    31   21   23 ar
    32   23   27 ar
    33   23   24 1
    34   24   25 2
    35   24   42 1
    36   25   26 1
    37   26   27 1
    38   26   29 1
    39   27   28 ar
    40   29   34 ar
    41   29   30 ar
    42   30   31 ar
    43   30   43 1
    44   31   32 ar
    45   31   44 1
    46   32   33 ar
    47   32   45 1
    48   33   34 ar
    49   33   46 1
    50   34   47 1
@<TRIPOS>MOLECULE
ZINC01782341
   56    61     0     0     0
SMALL
USER_CHARGES
bis(4-fluorophenyl)-[(4-fluorophenyl)methylene]BLAH
@<TRIPOS>ATOM
      1 C1         -1.9303    5.9790   -1.0643 C.ar      1 <0>        -0.0835
      2 C2         -2.0850    6.8755   -2.1002 C.ar      1 <0>        -0.1551
      3 C3         -3.3379    7.3913   -2.3929 C.ar      1 <0>         0.0996
      4 C4         -4.4432    7.0059   -1.6505 C.ar      1 <0>        -0.1536
      5 C5         -4.3023    6.1061   -0.6155 C.ar      1 <0>        -0.0755
      6 C6         -3.0417    5.5824   -0.3155 C.ar      1 <0>        -0.0673
      7 C7         -2.8842    4.6207    0.7898 C.2       1 <0>        -0.0770
      8 C8         -1.9541    3.6551    0.7122 C.2       1 <0>        -0.0694
      9 C9         -1.1753    3.4211   -0.5651 C.3       1 <0>        -0.0891
     10 C10        -1.0834    1.9022   -0.7686 C.3       1 <0>        -0.1147
     11 C11        -0.3065    1.2897    0.3942 C.3       1 <0>        -0.0607
     12 C12        -0.8983    1.6852    1.7166 C.2       1 <0>        -0.1895
     13 C13        -1.6571    2.7864    1.8719 C.2       1 <0>         0.1652
     14 N1         -2.1603    3.1129    3.0964 N.2       1 <0>        -0.5280
     15 C14        -1.9644    2.4172    4.1758 C.2       1 <0>         0.3661
     16 N2         -1.2242    1.2577    4.2239 N.pl3     1 <0>        -0.5484
     17 C15        -0.6330    0.8215    2.9327 C.3       1 <0>         0.2355
     18 H1          0.4466    0.7526    3.0659 H         1 <0>         0.0868
     19 C16        -1.1461   -0.5636    2.6341 C.ar      1 <0>        -0.1113
     20 C17        -2.4888   -0.8520    2.7934 C.ar      1 <0>        -0.0646
     21 C18        -2.9613   -2.1205    2.5153 C.ar      1 <0>        -0.1491
     22 C19        -2.0877   -3.1057    2.0870 C.ar      1 <0>         0.1074
     23 C20        -0.7423   -2.8171    1.9329 C.ar      1 <0>        -0.1485
     24 C21        -0.2729   -1.5464    2.2066 C.ar      1 <0>        -0.0725
     25 F1         -2.5477   -4.3474    1.8194 F         1 <0>        -0.1367
     26 C22        -1.1153    0.6381    5.4546 C.2       1 <0>         0.1562
     27 C23        -1.7122    1.1631    6.5389 C.2       1 <0>        -0.2147
     28 S1         -2.4947    2.6187    5.8638 S.3       1 <0>         0.0938
     29 C24        -0.3357   -0.6126    5.5797 C.ar      1 <0>        -0.0573
     30 C25        -0.8840   -1.7172    6.2332 C.ar      1 <0>        -0.0580
     31 C26        -0.1547   -2.8828    6.3424 C.ar      1 <0>        -0.1489
     32 C27         1.1242   -2.9549    5.8140 C.ar      1 <0>         0.1156
     33 C28         1.6756   -1.8594    5.1692 C.ar      1 <0>        -0.1492
     34 C29         0.9530   -0.6906    5.0497 C.ar      1 <0>        -0.0699
     35 F2          1.8363   -4.0974    5.9283 F         1 <0>        -0.1342
     36 F3         -3.4824    8.2731   -3.4062 F         1 <0>        -0.1392
     37 H2         -0.9529    5.5812   -0.8343 H         1 <0>         0.1401
     38 H3         -1.2275    7.1799   -2.6820 H         1 <0>         0.1370
     39 H4         -5.4168    7.4110   -1.8836 H         1 <0>         0.1371
     40 H5         -5.1643    5.8062   -0.0381 H         1 <0>         0.1355
     41 H6         -3.5167    4.6923    1.6623 H         1 <0>         0.1354
     42 H7         -0.1751    3.8446   -0.4730 H         1 <0>         0.0800
     43 H8         -1.6966    3.8775   -1.4066 H         1 <0>         0.0890
     44 H9         -0.5662    1.6904   -1.7044 H         1 <0>         0.0758
     45 H10        -2.0861    1.4762   -0.8017 H         1 <0>         0.0677
     46 H11        -0.3282    0.2036    0.3045 H         1 <0>         0.0756
     47 H12         0.7280    1.6303    0.3504 H         1 <0>         0.0768
     48 H13        -3.1693   -0.0845    3.1313 H         1 <0>         0.1215
     49 H14        -4.0109   -2.3445    2.6358 H         1 <0>         0.1361
     50 H15        -0.0600   -3.5846    1.5987 H         1 <0>         0.1378
     51 H16         0.7764   -1.3210    2.0861 H         1 <0>         0.1319
     52 H17        -1.7174    0.7983    7.5554 H         1 <0>         0.2097
     53 H18        -1.8790   -1.6606    6.6493 H         1 <0>         0.1393
     54 H19        -0.5795   -3.7394    6.8447 H         1 <0>         0.1419
     55 H20         2.6729   -1.9209    4.7591 H         1 <0>         0.1409
     56 H21         1.3838    0.1629    4.5473 H         1 <0>         0.1308
@<TRIPOS>BOND
     1    1    6 ar
     2    1    2 ar
     3    1   37 1
     4    2    3 ar
     5    2   38 1
     6    3    4 ar
     7    3   36 1
     8    4    5 ar
     9    4   39 1
    10    5    6 ar
    11    5   40 1
    12    6    7 1
    13    7    8 2
    14    7   41 1
    15    8   13 1
    16    8    9 1
    17    9   10 1
    18    9   42 1
    19    9   43 1
    20   10   11 1
    21   10   44 1
    22   10   45 1
    23   11   12 1
    24   11   46 1
    25   11   47 1
    26   12   17 1
    27   12   13 2
    28   13   14 1
    29   14   15 2
    30   15   28 1
    31   15   16 1
    32   16   17 1
    33   16   26 1
    34   17   18 1
    35   17   19 1
    36   19   24 ar
    37   19   20 ar
    38   20   21 ar
    39   20   48 1
    40   21   22 ar
    41   21   49 1
    42   22   23 ar
    43   22   25 1
    44   23   24 ar
    45   23   50 1
    46   24   51 1
    47   26   27 2
    48   26   29 1
    49   27   28 1
    50   27   52 1
    51   29   34 ar
    52   29   30 ar
    53   30   31 ar
    54   30   53 1
    55   31   32 ar
    56   31   54 1
    57   32   33 ar
    58   32   35 1
    59   33   34 ar
    60   33   55 1
    61   34   56 1
@<TRIPOS>MOLECULE
ZINC13960602
   42    45     0     0     0
SMALL
USER_CHARGES
1-benzyl-3,5-bis(4-bromophenyl)-4-chloro-pyrazole
@<TRIPOS>ATOM
      1 C1         -1.2377    3.1328    0.0290 C.ar      1 <0>        -0.1043
      2 C2         -1.2190    1.7507    0.0173 C.ar      1 <0>        -0.1211
      3 C3         -0.0126    1.0758    0.0080 C.ar      1 <0>        -0.0947
      4 C4          1.1750    1.7832    0.0004 C.ar      1 <0>        -0.1236
      5 C5          1.1563    3.1654    0.0081 C.ar      1 <0>        -0.0885
      6 C6         -0.0501    3.8402    0.0223 C.ar      1 <0>        -0.1219
      7 C7          2.4902    1.0476   -0.0156 C.3       1 <0>         0.1692
      8 N1          2.9034    0.8162   -1.4020 N.pl3     1 <0>        -0.3447
      9 C8          2.5955   -0.2763   -2.1596 C.2       1 <0>         0.1417
     10 C9          3.1683   -0.1009   -3.3859 C.2       1 <0>        -0.1549
     11 C10         3.8495    1.1287   -3.3691 C.2       1 <0>         0.1271
     12 N2          3.6891    1.6744   -2.1815 N.2       1 <0>        -0.2497
     13 C11         4.6174    1.7124   -4.4972 C.ar      1 <0>        -0.0046
     14 C12         5.3337    0.8835   -5.3580 C.ar      1 <0>        -0.0840
     15 C13         6.0426    1.4307   -6.4080 C.ar      1 <0>        -0.0898
     16 C14         6.0506    2.8012   -6.6010 C.ar      1 <0>        -0.0803
     17 C15         5.3448    3.6293   -5.7454 C.ar      1 <0>        -0.0918
     18 C16         4.6289    3.0914   -4.6954 C.ar      1 <0>        -0.0807
     19 Br1         7.0295    3.5449   -8.0378 Br        1 <0>        -0.0458
     20 Cl1         3.0769   -1.2018   -4.7251 Cl        1 <0>        -0.0245
     21 C17         1.7855   -1.4379   -1.7307 C.ar      1 <0>        -0.0230
     22 C18         2.0089   -2.0259   -0.4854 C.ar      1 <0>        -0.1000
     23 C19         1.2473   -3.1057   -0.0889 C.ar      1 <0>        -0.0863
     24 C20         0.2698   -3.6122   -0.9282 C.ar      1 <0>        -0.0781
     25 C21         0.0472   -3.0362   -2.1672 C.ar      1 <0>        -0.0846
     26 C22         0.7994   -1.9530   -2.5725 C.ar      1 <0>        -0.0751
     27 Br2        -0.7650   -5.0971   -0.3804 Br        1 <0>        -0.0393
     28 H1         -2.1802    3.6600    0.0398 H         1 <0>         0.1255
     29 H2         -2.1469    1.1980    0.0188 H         1 <0>         0.1257
     30 H3          0.0021   -0.0041    0.0020 H         1 <0>         0.1210
     31 H4          2.0841    3.7181    0.0025 H         1 <0>         0.1259
     32 H5         -0.0647    4.9201    0.0280 H         1 <0>         0.1263
     33 H6          3.2465    1.6443    0.4942 H         1 <0>         0.1124
     34 H7          2.3776    0.0909    0.4944 H         1 <0>         0.1082
     35 H8          5.3315   -0.1857   -5.2058 H         1 <0>         0.1383
     36 H9          6.5952    0.7887   -7.0781 H         1 <0>         0.1389
     37 H10         5.3547    4.6982   -5.8997 H         1 <0>         0.1380
     38 H11         4.0788    3.7384   -4.0281 H         1 <0>         0.1365
     39 H12         2.7739   -1.6341    0.1685 H         1 <0>         0.1345
     40 H13         1.4167   -3.5593    0.8765 H         1 <0>         0.1410
     41 H14        -0.7164   -3.4358   -2.8180 H         1 <0>         0.1416
     42 H15         0.6254   -1.5049   -3.5396 H         1 <0>         0.1392
@<TRIPOS>BOND
     1    1    6 ar
     2    1    2 ar
     3    1   28 1
     4    2    3 ar
     5    2   29 1
     6    3    4 ar
     7    3   30 1
     8    4    5 ar
     9    4    7 1
    10    5    6 ar
    11    5   31 1
    12    6   32 1
    13    7    8 1
    14    7   33 1
    15    7   34 1
    16    8   12 1
    17    8    9 1
    18    9   10 2
    19    9   21 1
    20   10   11 1
    21   10   20 1
    22   11   12 2
    23   11   13 1
    24   13   18 ar
    25   13   14 ar
    26   14   15 ar
    27   14   35 1
    28   15   16 ar
    29   15   36 1
    30   16   17 ar
    31   16   19 1
    32   17   18 ar
    33   17   37 1
    34   18   38 1
    35   21   26 ar
    36   21   22 ar
    37   22   23 ar
    38   22   39 1
    39   23   24 ar
    40   23   40 1
    41   24   25 ar
    42   24   27 1
    43   25   26 ar
    44   25   41 1
    45   26   42 1
@<TRIPOS>MOLECULE
ZINC02733483
   42    45     0     0     0
SMALL
USER_CHARGES
3,5-bis(3-bromophenyl)-1-[(3-fluorophenyl)methyl]pyrazole
@<TRIPOS>ATOM
      1 C1          3.3057    2.7196   -1.2369 C.ar      1 <0>        -0.0907
      2 C2          2.0104    2.2363   -1.2163 C.ar      1 <0>        -0.1008
      3 C3          1.3835    1.9879   -0.0097 C.ar      1 <0>        -0.0911
      4 C4          2.0487    2.2282    1.1778 C.ar      1 <0>        -0.1347
      5 C5          3.3473    2.7077    1.1583 C.ar      1 <0>         0.0990
      6 C6          3.9745    2.9557   -0.0511 C.ar      1 <0>        -0.1413
      7 F1          4.0003    2.9381    2.3184 F         1 <0>        -0.1355
      8 C7         -0.0281    1.4606    0.0111 C.3       1 <0>         0.1605
      9 N1         -0.0025   -0.0041    0.0025 N.pl3     1 <0>        -0.3544
     10 C8          0.1196   -0.8107    1.0953 C.2       1 <0>         0.1262
     11 C9          0.0999   -2.1024    0.6574 C.2       1 <0>        -0.2309
     12 C10        -0.0380   -2.0795   -0.7406 C.2       1 <0>         0.1137
     13 N2         -0.1050   -0.8232   -1.1290 N.2       1 <0>        -0.2642
     14 C11        -0.1040   -3.2682   -1.6272 C.ar      1 <0>        -0.0081
     15 C12        -0.2423   -3.1064   -3.0043 C.ar      1 <0>        -0.0766
     16 C13        -0.3028   -4.2146   -3.8245 C.ar      1 <0>        -0.1132
     17 C14        -0.2264   -5.4848   -3.2822 C.ar      1 <0>        -0.0829
     18 C15        -0.0886   -5.6517   -1.9154 C.ar      1 <0>        -0.0908
     19 C16        -0.0222   -4.5489   -1.0861 C.ar      1 <0>        -0.0675
     20 Br1         0.0157   -7.3918   -1.1825 Br        1 <0>        -0.0444
     21 C17         0.2504   -0.3654    2.5006 C.ar      1 <0>        -0.0237
     22 C18        -0.4187    0.7779    2.9382 C.ar      1 <0>        -0.1055
     23 C19        -0.2930    1.1883    4.2494 C.ar      1 <0>        -0.1061
     24 C20         0.4946    0.4688    5.1303 C.ar      1 <0>        -0.0804
     25 C21         1.1614   -0.6662    4.7026 C.ar      1 <0>        -0.0845
     26 C22         1.0384   -1.0904    3.3942 C.ar      1 <0>        -0.0625
     27 Br2         2.2365   -1.6421    5.9141 Br        1 <0>        -0.0368
     28 H1          3.7947    2.9130   -2.1802 H         1 <0>         0.1377
     29 H2          1.4883    2.0524   -2.1436 H         1 <0>         0.1337
     30 H3          1.5570    2.0383    2.1204 H         1 <0>         0.1354
     31 H4          4.9860    3.3340   -0.0674 H         1 <0>         0.1390
     32 H5         -0.5378    1.8131    0.9199 H         1 <0>         0.1109
     33 H6         -0.5681    1.8231   -0.8761 H         1 <0>         0.1162
     34 H7          0.1766   -2.9851    1.2751 H         1 <0>         0.1539
     35 H8         -0.3024   -2.1152   -3.4290 H         1 <0>         0.1362
     36 H9         -0.4096   -4.0898   -4.8920 H         1 <0>         0.1369
     37 H10        -0.2741   -6.3493   -3.9278 H         1 <0>         0.1357
     38 H11         0.0891   -4.6797   -0.0198 H         1 <0>         0.1375
     39 H12        -1.0342    1.3406    2.2519 H         1 <0>         0.1340
     40 H13        -0.8109    2.0731    4.5891 H         1 <0>         0.1404
     41 H14         0.5897    0.7941    6.1557 H         1 <0>         0.1391
     42 H15         1.5549   -1.9790    3.0625 H         1 <0>         0.1407
@<TRIPOS>BOND
     1    1    6 ar
     2    1    2 ar
     3    1   28 1
     4    2    3 ar
     5    2   29 1
     6    3    4 ar
     7    3    8 1
     8    4    5 ar
     9    4   30 1
    10    5    6 ar
    11    5    7 1
    12    6   31 1
    13    8    9 1
    14    8   32 1
    15    8   33 1
    16    9   13 1
    17    9   10 1
    18   10   11 2
    19   10   21 1
    20   11   12 1
    21   11   34 1
    22   12   13 2
    23   12   14 1
    24   14   19 ar
    25   14   15 ar
    26   15   16 ar
    27   15   35 1
    28   16   17 ar
    29   16   36 1
    30   17   18 ar
    31   17   37 1
    32   18   19 ar
    33   18   20 1
    34   19   38 1
    35   21   26 ar
    36   21   22 ar
    37   22   23 ar
    38   22   39 1
    39   23   24 ar
    40   23   40 1
    41   24   25 ar
    42   24   41 1
    43   25   26 ar
    44   25   27 1
    45   26   42 1
@<TRIPOS>MOLECULE
ZINC36585860
   69    71     0     0     0
SMALL
USER_CHARGES

@<TRIPOS>ATOM
      1 C1          1.4162    2.1194   -1.2118 C.3       1 <0>        -0.1614
      2 C2          0.4773    1.4364   -0.2154 C.3       1 <0>        -0.0700
      3 H1          0.8599    0.4439    0.0227 H         1 <0>         0.0953
      4 C3          0.3971    2.2594    1.0445 C.ar      1 <0>        -0.0809
      5 C4         -0.0682    3.5601    0.9920 C.ar      1 <0>        -0.1104
      6 C5         -0.1418    4.3150    2.1477 C.ar      1 <0>        -0.1100
      7 C6          0.2495    3.7691    3.3559 C.ar      1 <0>        -0.1216
      8 C7          0.7139    2.4682    3.4086 C.ar      1 <0>        -0.1159
      9 C8          0.7835    1.7118    2.2535 C.ar      1 <0>        -0.1266
     10 C9         -0.9172    1.3110   -0.8322 C.3       1 <0>         0.1494
     11 H2         -1.3488    2.3038   -0.9595 H         1 <0>         0.1167
     12 C10        -1.7973    0.4934    0.0777 C.2       1 <0>         0.5066
     13 O1         -2.6227   -0.2601   -0.3933 O.2       1 <0>        -0.5184
     14 N1         -1.6672    0.5996    1.4150 N.am      1 <0>        -0.7360
     15 C11        -2.5228   -0.1952    2.2996 C.3       1 <0>         0.1436
     16 C12        -3.8492    0.5355    2.5179 C.3       1 <0>        -0.1299
     17 C13        -4.7427   -0.2945    3.4417 C.3       1 <0>        -0.1165
     18 C14        -4.0416   -0.4918    4.7872 C.3       1 <0>        -0.1205
     19 C15        -2.7153   -1.2225    4.5689 C.3       1 <0>        -0.1149
     20 C16        -1.8217   -0.3925    3.6451 C.3       1 <0>        -0.1243
     21 N2         -0.8167    0.6514   -2.1365 N.am      1 <0>        -0.6141
     22 C17        -1.2737    1.2716   -3.2423 C.2       1 <0>         0.5934
     23 O2         -2.2653    1.9725   -3.1804 O.2       1 <0>        -0.4931
     24 C18        -0.5706    1.1002   -4.5280 C.ar      1 <0>        -0.3028
     25 C19         0.2723    0.0040   -4.7271 C.ar      1 <0>        -0.0150
     26 C20         0.9261   -0.1504   -5.9302 C.ar      1 <0>        -0.2010
     27 C21         0.7516    0.7770   -6.9446 C.ar      1 <0>        -0.0092
     28 C22        -0.0781    1.8650   -6.7611 C.ar      1 <0>        -0.2409
     29 C23        -0.7490    2.0329   -5.5586 C.ar      1 <0>         0.3328
     30 O3         -1.5693    3.0982   -5.3790 O.3       1 <0>        -0.6303
     31 N3          1.8193   -1.3120   -6.1395 N.pl3     1 <0>         0.0768
     32 O4          1.8999   -2.1726   -5.2943 O.2       1 <0>        -0.2249
     33 O5          2.4682   -1.4002   -7.1558 O.3       1 <0>        -0.2218
     34 C24        -0.2195   -0.6825   -2.2386 C.3       1 <0>         0.1770
     35 C25        -0.4353   -1.4397   -0.9268 C.3       1 <0>        -0.1909
     36 C26        -0.8799   -1.4505   -3.3854 C.3       1 <0>        -0.2095
     37 C27         1.2803   -0.5503   -2.5104 C.3       1 <0>        -0.1967
     38 H3          2.4097    2.2088   -0.7723 H         1 <0>         0.0584
     39 H4          1.4742    1.5242   -2.1231 H         1 <0>         0.0890
     40 H5          1.0336    3.1119   -1.4499 H         1 <0>         0.0583
     41 H6         -0.3739    3.9865    0.0480 H         1 <0>         0.1281
     42 H7         -0.5046    5.3314    2.1066 H         1 <0>         0.1250
     43 H8          0.1927    4.3592    4.2587 H         1 <0>         0.1224
     44 H9          1.0200    2.0418    4.3525 H         1 <0>         0.1243
     45 H10         1.1428    0.6942    2.2952 H         1 <0>         0.1264
     46 H11        -1.0071    1.2022    1.7917 H         1 <0>         0.4014
     47 H12        -2.7140   -1.1666    1.8436 H         1 <0>         0.0850
     48 H13        -3.6580    1.5070    2.9738 H         1 <0>         0.0603
     49 H14        -4.3486    0.6761    1.5593 H         1 <0>         0.0683
     50 H15        -5.6877    0.2261    3.5972 H         1 <0>         0.0623
     51 H16        -4.9339   -1.2659    2.9857 H         1 <0>         0.0636
     52 H17        -3.8505    0.4797    5.2432 H         1 <0>         0.0610
     53 H18        -4.6782   -1.0831    5.4454 H         1 <0>         0.0612
     54 H19        -2.2158   -1.3630    5.5275 H         1 <0>         0.0644
     55 H20        -2.9064   -2.1939    4.1130 H         1 <0>         0.0645
     56 H21        -0.8768   -0.9131    3.4896 H         1 <0>         0.0664
     57 H22        -1.6306    0.5790    4.1010 H         1 <0>         0.0659
     58 H23         0.4117   -0.7212   -3.9390 H         1 <0>         0.2045
     59 H24         1.2679    0.6481   -7.8844 H         1 <0>         0.1251
     60 H25        -0.2088    2.5838   -7.5564 H         1 <0>         0.1240
     61 H26        -1.5040   -1.5520   -0.7436 H         1 <0>         0.1068
     62 H27         0.0269   -2.4245   -0.9954 H         1 <0>         0.0635
     63 H28         0.0173   -0.8822   -0.1068 H         1 <0>         0.0589
     64 H29        -1.0904   -0.7661   -4.2072 H         1 <0>         0.1033
     65 H30        -0.2084   -2.2367   -3.7303 H         1 <0>         0.0826
     66 H31        -1.8113   -1.8957   -3.0356 H         1 <0>         0.0630
     67 H32         1.8239   -0.5707   -1.5658 H         1 <0>         0.0602
     68 H33         1.6103   -1.3786   -3.1375 H         1 <0>         0.0855
     69 H34         1.4753    0.3925   -3.0215 H         1 <0>         0.0825
@<TRIPOS>BOND
     1    1    2 1
     2    1   38 1
     3    1   39 1
     4    1   40 1
     5    2    3 1
     6    2    4 1
     7    2   10 1
     8    4    9 ar
     9    4    5 ar
    10    5    6 ar
    11    5   41 1
    12    6    7 ar
    13    6   42 1
    14    7    8 ar
    15    7   43 1
    16    8    9 ar
    17    8   44 1
    18    9   45 1
    19   10   11 1
    20   10   12 1
    21   10   21 1
    22   12   13 2
    23   12   14 am
    24   14   15 1
    25   14   46 1
    26   15   20 1
    27   15   16 1
    28   15   47 1
    29   16   17 1
    30   16   48 1
    31   16   49 1
    32   17   18 1
    33   17   50 1
    34   17   51 1
    35   18   19 1
    36   18   52 1
    37   18   53 1
    38   19   20 1
    39   19   54 1
    40   19   55 1
    41   20   56 1
    42   20   57 1
    43   21   22 am
    44   21   34 1
    45   22   23 2
    46   22   24 1
    47   24   29 ar
    48   24   25 ar
    49   25   26 ar
    50   25   58 1
    51   26   27 ar
    52   26   31 1
    53   27   28 ar
    54   27   59 1
    55   28   29 ar
    56   28   60 1
    57   29   30 1
    58   31   32 2
    59   31   33 1
    60   34   35 1
    61   34   36 1
    62   34   37 1
    63   35   61 1
    64   35   62 1
    65   35   63 1
    66   36   64 1
    67   36   65 1
    68   36   66 1
    69   37   67 1
    70   37   68 1
    71   37   69 1
@<TRIPOS>MOLECULE
ZINC59136638
   45    48     0     0     0
SMALL
USER_CHARGES

@<TRIPOS>ATOM
      1 C1         -0.0368    1.3474    0.4522 C.3       1 <0>        -0.1202
      2 C2          0.0120   -0.1558    0.3576 C.ar      1 <0>        -0.0695
      3 C3         -0.6853   -0.9264    1.2712 C.ar      1 <0>        -0.1185
      4 C4         -0.6450   -2.3028    1.1905 C.ar      1 <0>        -0.0869
      5 C5          0.1018   -2.9183    0.1837 C.ar      1 <0>        -0.0574
      6 C6          0.8032   -2.1345   -0.7350 C.ar      1 <0>        -0.0842
      7 C7          0.7495   -0.7590   -0.6459 C.ar      1 <0>        -0.1205
      8 C8          0.1501   -4.3917    0.0912 C.2       1 <0>         0.1514
      9 C9         -0.0201   -5.0967   -1.0495 C.2       1 <0>        -0.1732
     10 C10         0.1056   -6.5186   -0.6931 C.2       1 <0>        -0.1741
     11 C11         0.0052   -7.6078   -1.5345 C.2       1 <0>         0.0352
     12 C12        -0.0114   -8.9634   -0.9792 C.ar      1 <0>        -0.1117
     13 C13        -0.6967   -9.2273    0.2150 C.ar      1 <0>        -0.0187
     14 C14        -0.7081  -10.5041    0.7303 C.ar      1 <0>        -0.1612
     15 C15        -0.0436  -11.5282    0.0709 C.ar      1 <0>         0.1192
     16 C16         0.6373  -11.2750   -1.1113 C.ar      1 <0>        -0.1664
     17 C17         0.6530  -10.0046   -1.6423 C.ar      1 <0>        -0.0589
     18 F1         -0.0593  -12.7784    0.5827 F         1 <0>        -0.1365
     19 C18         0.3624   -6.5266    0.7601 C.2       1 <0>         0.5442
     20 O1          0.5295   -7.5074    1.4618 O.2       1 <0>        -0.4794
     21 N1          0.3819   -5.2413    1.1604 N.am      1 <0>        -0.5058
     22 C19         0.6023   -4.8209    2.4783 C.ar      1 <0>         0.1374
     23 C20         1.7434   -4.0956    2.7956 C.ar      1 <0>        -0.0889
     24 C21         1.9583   -3.6825    4.0957 C.ar      1 <0>        -0.1005
     25 C22         1.0389   -3.9906    5.0817 C.ar      1 <0>        -0.0785
     26 C23        -0.0987   -4.7128    4.7692 C.ar      1 <0>        -0.0904
     27 C24        -0.3221   -5.1236    3.4687 C.ar      1 <0>        -0.0751
     28 I1         -1.4879   -5.1774    6.2669 I         1 <0>        -0.0281
     29 H1         -0.8732    1.7217   -0.1381 H         1 <0>         0.0744
     30 H2         -0.1665    1.6419    1.4936 H         1 <0>         0.0686
     31 H3          0.8940    1.7660    0.0695 H         1 <0>         0.0691
     32 H4         -1.2622   -0.4490    2.0495 H         1 <0>         0.1259
     33 H5         -1.1895   -2.9030    1.9044 H         1 <0>         0.1199
     34 H6          1.3830   -2.6041   -1.5158 H         1 <0>         0.1299
     35 H7          1.2878   -0.1516   -1.3584 H         1 <0>         0.1285
     36 H8         -0.2120   -4.6938   -2.0330 H         1 <0>         0.1629
     37 H9         -0.0611   -7.4608   -2.6024 H         1 <0>         0.1506
     38 H10        -1.2141   -8.4311    0.7296 H         1 <0>         0.1320
     39 H11        -1.2353  -10.7089    1.6504 H         1 <0>         0.1373
     40 H12         1.1524  -12.0772   -1.6186 H         1 <0>         0.1392
     41 H13         1.1794   -9.8100   -2.5651 H         1 <0>         0.1381
     42 H14         2.4623   -3.8551    2.0263 H         1 <0>         0.1325
     43 H15         2.8455   -3.1184    4.3428 H         1 <0>         0.1402
     44 H16         1.2095   -3.6669    6.0979 H         1 <0>         0.1361
     45 H17        -1.2128   -5.6833    3.2241 H         1 <0>         0.1318
@<TRIPOS>BOND
     1    1    2 1
     2    1   29 1
     3    1   30 1
     4    1   31 1
     5    2    7 ar
     6    2    3 ar
     7    3    4 ar
     8    3   32 1
     9    4    5 ar
    10    4   33 1
    11    5    6 ar
    12    5    8 1
    13    6    7 ar
    14    6   34 1
    15    7   35 1
    16    8   21 1
    17    8    9 2
    18    9   10 1
    19    9   36 1
    20   10   11 2
    21   10   19 1
    22   11   12 1
    23   11   37 1
    24   12   17 ar
    25   12   13 ar
    26   13   14 ar
    27   13   38 1
    28   14   15 ar
    29   14   39 1
    30   15   16 ar
    31   15   18 1
    32   16   17 ar
    33   16   40 1
    34   17   41 1
    35   19   20 2
    36   19   21 am
    37   21   22 1
    38   22   27 ar
    39   22   23 ar
    40   23   24 ar
    41   23   42 1
    42   24   25 ar
    43   24   43 1
    44   25   26 ar
    45   25   44 1
    46   26   27 ar
    47   26   28 1
    48   27   45 1
@<TRIPOS>MOLECULE
ZINC02265107
   62    67     0     0     0
SMALL
USER_CHARGES
2-[(2-chlorophenyl)methylsulfanyl]-3-phenyl-spiro[6H-benzo[h]quinazoline-5,1'-cyclohexane]-4-one
@<TRIPOS>ATOM
      1 C1         -2.7558   -1.6618   -6.3435 C.ar      1 <0>        -0.0970
      2 C2         -4.0167   -1.2529   -5.9497 C.ar      1 <0>        -0.1088
      3 C3         -4.4520   -1.4955   -4.6616 C.ar      1 <0>        -0.0862
      4 C4         -3.6218   -2.1503   -3.7615 C.ar      1 <0>         0.0890
      5 C5         -2.3540   -2.5546   -4.1583 C.ar      1 <0>        -0.0878
      6 C6         -1.9267   -2.3141   -5.4495 C.ar      1 <0>        -0.1092
      7 N1         -4.0601   -2.3974   -2.4544 N.am      1 <0>        -0.4651
      8 C7         -4.7125   -3.5448   -2.1685 C.2       1 <0>         0.5367
      9 O1         -4.9473   -4.3629   -3.0433 O.2       1 <0>        -0.5078
     10 C8         -5.1144   -3.7759   -0.8469 C.2       1 <0>        -0.2405
     11 C9         -4.8308   -2.8208    0.1164 C.2       1 <0>         0.2343
     12 N2         -4.2016   -1.6914   -0.2281 N.2       1 <0>        -0.5289
     13 C10        -3.8272   -1.4782   -1.4736 C.2       1 <0>         0.3645
     14 S1         -3.0011    0.0243   -1.8796 S.3       1 <0>         0.0333
     15 C11        -2.9733    0.8172   -0.2528 C.3       1 <0>        -0.0742
     16 C12        -2.2931    2.1578   -0.3589 C.ar      1 <0>        -0.0792
     17 C13        -0.9266    2.2562   -0.1743 C.ar      1 <0>        -0.0866
     18 C14        -0.3025    3.4855   -0.2721 C.ar      1 <0>        -0.1133
     19 C15        -1.0444    4.6176   -0.5545 C.ar      1 <0>        -0.0959
     20 C16        -2.4104    4.5205   -0.7392 C.ar      1 <0>        -0.1095
     21 C17        -3.0358    3.2900   -0.6415 C.ar      1 <0>        -0.0191
     22 Cl1        -4.7508    3.1662   -0.8805 Cl        1 <0>        -0.0568
     23 C18        -5.2183   -3.0772    1.5218 C.ar      1 <0>        -0.0598
     24 C19        -5.2749   -2.0376    2.4464 C.ar      1 <0>        -0.0692
     25 C20        -5.6859   -2.2941    3.7392 C.ar      1 <0>        -0.1331
     26 C21        -6.0388   -3.5787    4.1128 C.ar      1 <0>        -0.0949
     27 C22        -5.9734   -4.6161    3.2000 C.ar      1 <0>        -0.1245
     28 C23        -5.5567   -4.3740    1.9067 C.ar      1 <0>        -0.0426
     29 C24        -5.4625   -5.5026    0.9156 C.3       1 <0>        -0.0800
     30 C25        -5.8604   -5.0306   -0.4816 C.3       1 <0>         0.0226
     31 C26        -5.5309   -6.1276   -1.4990 C.3       1 <0>        -0.1189
     32 C27        -6.2914   -7.4041   -1.1354 C.3       1 <0>        -0.1224
     33 C28        -7.7958   -7.1265   -1.1613 C.3       1 <0>        -0.1192
     34 C29        -8.1283   -6.0274   -0.1501 C.3       1 <0>        -0.1184
     35 C30        -7.3661   -4.7519   -0.5134 C.3       1 <0>        -0.1028
     36 H1         -2.4179   -1.4716   -7.3515 H         1 <0>         0.1323
     37 H2         -4.6620   -0.7437   -6.6503 H         1 <0>         0.1343
     38 H3         -5.4372   -1.1766   -4.3549 H         1 <0>         0.1265
     39 H4         -1.7044   -3.0604   -3.4593 H         1 <0>         0.1264
     40 H5         -0.9424   -2.6322   -5.7600 H         1 <0>         0.1343
     41 H6         -2.4271    0.1872    0.4492 H         1 <0>         0.1156
     42 H7         -3.9948    0.9552    0.1017 H         1 <0>         0.1164
     43 H8         -0.3465    1.3722    0.0460 H         1 <0>         0.1366
     44 H9          0.7651    3.5619   -0.1281 H         1 <0>         0.1345
     45 H10        -0.5562    5.5779   -0.6308 H         1 <0>         0.1362
     46 H11        -2.9899    5.4049   -0.9595 H         1 <0>         0.1381
     47 H12        -4.9990   -1.0354    2.1534 H         1 <0>         0.1319
     48 H13        -5.7324   -1.4909    4.4597 H         1 <0>         0.1272
     49 H14        -6.3676   -3.7727    5.1231 H         1 <0>         0.1262
     50 H15        -6.2492   -5.6164    3.4996 H         1 <0>         0.1282
     51 H16        -6.1280   -6.3085    1.2251 H         1 <0>         0.0932
     52 H17        -4.4377   -5.8731    0.8909 H         1 <0>         0.0801
     53 H18        -5.8266   -5.7997   -2.4956 H         1 <0>         0.1096
     54 H19        -4.4593   -6.3265   -1.4848 H         1 <0>         0.0539
     55 H20        -5.9991   -7.7292   -0.1370 H         1 <0>         0.0585
     56 H21        -6.0538   -8.1863   -1.8563 H         1 <0>         0.0610
     57 H22        -8.3377   -8.0358   -0.9011 H         1 <0>         0.0599
     58 H23        -8.0884   -6.8022   -2.1599 H         1 <0>         0.0617
     59 H24        -7.8371   -6.3526    0.8487 H         1 <0>         0.0650
     60 H25        -9.1998   -5.8283   -0.1693 H         1 <0>         0.0621
     61 H26        -7.6058   -3.9682    0.2053 H         1 <0>         0.0596
     62 H27        -7.6548   -4.4285   -1.5134 H         1 <0>         0.0623
@<TRIPOS>BOND
     1    1    6 ar
     2    1    2 ar
     3    1   36 1
     4    2    3 ar
     5    2   37 1
     6    3    4 ar
     7    3   38 1
     8    4    5 ar
     9    4    7 1
    10    5    6 ar
    11    5   39 1
    12    6   40 1
    13    7   13 1
    14    7    8 am
    15    8    9 2
    16    8   10 1
    17   10   30 1
    18   10   11 2
    19   11   12 1
    20   11   23 1
    21   12   13 2
    22   13   14 1
    23   14   15 1
    24   15   16 1
    25   15   41 1
    26   15   42 1
    27   16   21 ar
    28   16   17 ar
    29   17   18 ar
    30   17   43 1
    31   18   19 ar
    32   18   44 1
    33   19   20 ar
    34   19   45 1
    35   20   21 ar
    36   20   46 1
    37   21   22 1
    38   23   28 ar
    39   23   24 ar
    40   24   25 ar
    41   24   47 1
    42   25   26 ar
    43   25   48 1
    44   26   27 ar
    45   26   49 1
    46   27   28 ar
    47   27   50 1
    48   28   29 1
    49   29   30 1
    50   29   51 1
    51   29   52 1
    52   30   35 1
    53   30   31 1
    54   31   32 1
    55   31   53 1
    56   31   54 1
    57   32   33 1
    58   32   55 1
    59   32   56 1
    60   33   34 1
    61   33   57 1
    62   33   58 1
    63   34   35 1
    64   34   59 1
    65   34   60 1
    66   35   61 1
    67   35   62 1
@<TRIPOS>MOLECULE
ZINC16939827
   81    85     0     0     0
SMALL
USER_CHARGES
dichloro-[(1R)-1,5-dimethylhexyl]-trimethyl-BLAHone
@<TRIPOS>ATOM
      1 C1          4.1816   -4.4578    6.5738 C.3       1 <0>        -0.1493
      2 C2          3.4678   -3.7969    7.7548 C.3       1 <0>        -0.0981
      3 C3          4.4114   -3.7475    8.9582 C.3       1 <0>        -0.1490
      4 C4          3.0563   -2.3742    7.3707 C.3       1 <0>        -0.1149
      5 C5          2.0172   -2.4291    6.2490 C.3       1 <0>        -0.1222
      6 C6          1.6057   -1.0064    5.8649 C.3       1 <0>        -0.1166
      7 C7          0.5666   -1.0613    4.7432 C.3       1 <0>        -0.0921
      8 H1          0.9632   -1.6394    3.9086 H         1 <0>         0.0762
      9 C8         -0.7100   -1.7256    5.2628 C.3       1 <0>        -0.1549
     10 C9          0.2427    0.3807    4.2667 C.3       1 <0>        -0.0822
     11 H2         -0.1393    0.9182    5.1154 H         1 <0>         0.0645
     12 C10         1.5866    1.1317    3.8204 C.3       1 <0>        -0.1172
     13 C11         1.1949    1.7600    2.4359 C.3       1 <0>        -0.1266
     14 C12        -0.4003    1.7279    2.4999 C.3       1 <0>        -0.0713
     15 H3         -0.6716    2.4826    3.2431 H         1 <0>         0.0617
     16 C13        -0.6381    0.3443    3.1066 C.3       1 <0>        -0.0440
     17 C14        -2.1598    0.1666    3.4125 C.3       1 <0>        -0.1033
     18 C15        -3.0288    0.9111    2.3855 C.3       1 <0>        -0.0982
     19 C16        -2.3200    1.0915    1.0445 C.3       1 <0>        -0.0822
     20 H4         -1.8280    0.0681    0.7390 H         1 <0>         0.0791
     21 C17        -1.1294    2.0426    1.1926 C.3       1 <0>        -0.0584
     22 H5         -1.5399    3.0620    1.2874 H         1 <0>         0.0628
     23 C18        -0.3214    1.9952   -0.0075 C.3       1 <0>        -0.1123
     24 C19        -1.1233    2.5040   -1.2317 C.3       1 <0>        -0.1103
     25 C20        -2.3562    1.6088   -1.3976 C.3       1 <0>        -0.0813
     26 H6         -2.0512    0.5753   -1.5572 H         1 <0>         0.0724
     27 C21        -3.2111    1.5476   -0.0367 C.3       1 <0>        -0.0396
     28 C22        -4.2967    0.4554   -0.3345 C.3       1 <0>        -0.1071
     29 C23        -5.3005    0.9751   -1.3772 C.3       1 <0>        -0.1071
     30 H7         -5.9702    1.5671   -0.9289 H         1 <0>         0.1258
     31 C24        -5.7521   -0.1608   -2.2180 C.2       1 <0>         0.3447
     32 O1         -6.7014   -1.0173   -2.1166 O.2       1 <0>        -0.4098
     33 C25        -4.6654    0.1254   -3.2891 C.3       1 <0>         0.0215
     34 C26        -4.6289    1.5093   -2.6722 C.3       1 <0>        -0.0326
     35 C27        -3.2188    2.0389   -2.5182 C.3       1 <0>        -0.1092
     36 C28        -5.4986    2.4742   -3.3701 C.3       1 <0>        -0.1499
     37 Cl1        -3.2427   -0.8991   -3.1294 Cl        1 <0>        -0.0502
     38 Cl2        -5.3019    0.0947   -4.9753 Cl        1 <0>        -0.1001
     39 C29        -3.8639    2.8810    0.2110 C.3       1 <0>        -0.1443
     40 C30        -0.0853   -0.8104    2.1741 C.3       1 <0>        -0.1409
     41 H8          3.5093   -4.4929    5.7165 H         1 <0>         0.0562
     42 H9          5.0691   -3.8799    6.3161 H         1 <0>         0.0531
     43 H10         4.4747   -5.4713    6.8475 H         1 <0>         0.0520
     44 H11         2.5803   -4.3748    8.0125 H         1 <0>         0.0675
     45 H12         3.9029   -3.2767    9.7995 H         1 <0>         0.0532
     46 H13         4.7045   -4.7611    9.2318 H         1 <0>         0.0534
     47 H14         5.2989   -3.1697    8.7005 H         1 <0>         0.0535
     48 H15         3.9319   -1.8227    7.0282 H         1 <0>         0.0599
     49 H16         2.6279   -1.8730    8.2387 H         1 <0>         0.0594
     50 H17         1.1416   -2.9806    6.5915 H         1 <0>         0.0622
     51 H18         2.4457   -2.9303    5.3810 H         1 <0>         0.0617
     52 H19         2.4813   -0.4549    5.5224 H         1 <0>         0.0620
     53 H20         1.1773   -0.5053    6.7329 H         1 <0>         0.0573
     54 H21        -1.1857   -1.0746    5.9963 H         1 <0>         0.0510
     55 H22        -1.3941   -1.8975    4.4318 H         1 <0>         0.0605
     56 H23        -0.4597   -2.6779    5.7303 H         1 <0>         0.0540
     57 H24         1.8221    1.8512    4.5181 H         1 <0>         0.0673
     58 H25         2.3341    0.3987    3.6562 H         1 <0>         0.0653
     59 H26         1.5569    1.2041    1.6036 H         1 <0>         0.0653
     60 H27         1.5992    2.7756    2.3550 H         1 <0>         0.0556
     61 H28        -2.3555   -0.9575    3.3842 H         1 <0>         0.0631
     62 H29        -2.3060    0.4897    4.4074 H         1 <0>         0.0628
     63 H30        -3.2748    1.8097    2.7484 H         1 <0>         0.0619
     64 H31        -3.9405    0.2793    2.1621 H         1 <0>         0.0629
     65 H32        -0.0074    0.9729   -0.2072 H         1 <0>         0.0564
     66 H33         0.6466    2.6251    0.0563 H         1 <0>         0.0639
     67 H34        -1.4107    3.5649   -0.9999 H         1 <0>         0.0673
     68 H35        -0.5146    2.4454   -2.1483 H         1 <0>         0.0686
     69 H36        -3.8297   -0.4276   -0.6450 H         1 <0>         0.0816
     70 H37        -4.8585    0.3505    0.6115 H         1 <0>         0.0827
     71 H38        -3.2618    3.1321   -2.4792 H         1 <0>         0.0725
     72 H39        -2.6252    1.8545   -3.4596 H         1 <0>         0.0730
     73 H40        -5.7042    3.3193   -2.7131 H         1 <0>         0.0826
     74 H41        -4.9984    2.8282   -4.2716 H         1 <0>         0.0798
     75 H42        -6.4358    1.9885   -3.6415 H         1 <0>         0.0683
     76 H43        -4.5253    3.1219   -0.6213 H         1 <0>         0.0604
     77 H44        -4.4425    2.8365    1.1337 H         1 <0>         0.0574
     78 H45        -3.0968    3.6502    0.2999 H         1 <0>         0.0628
     79 H46         1.0038   -0.7717    2.1548 H         1 <0>         0.0573
     80 H47        -0.4077   -1.7765    2.5623 H         1 <0>         0.0555
     81 H48        -0.4716   -0.6775    1.1635 H         1 <0>         0.0552
@<TRIPOS>BOND
     1    1    2 1
     2    1   41 1
     3    1   42 1
     4    1   43 1
     5    2    3 1
     6    2    4 1
     7    2   44 1
     8    3   45 1
     9    3   46 1
    10    3   47 1
    11    4    5 1
    12    4   48 1
    13    4   49 1
    14    5    6 1
    15    5   50 1
    16    5   51 1
    17    6    7 1
    18    6   52 1
    19    6   53 1
    20    7    8 1
    21    7    9 1
    22    7   10 1
    23    9   54 1
    24    9   55 1
    25    9   56 1
    26   10   11 1
    27   10   16 1
    28   10   12 1
    29   12   13 1
    30   12   57 1
    31   12   58 1
    32   13   14 1
    33   13   59 1
    34   13   60 1
    35   14   15 1
    36   14   21 1
    37   14   16 1
    38   16   17 1
    39   16   40 1
    40   17   18 1
    41   17   61 1
    42   17   62 1
    43   18   19 1
    44   18   63 1
    45   18   64 1
    46   19   20 1
    47   19   27 1
    48   19   21 1
    49   21   22 1
    50   21   23 1
    51   23   24 1
    52   23   65 1
    53   23   66 1
    54   24   25 1
    55   24   67 1
    56   24   68 1
    57   25   26 1
    58   25   35 1
    59   25   27 1
    60   27   28 1
    61   27   39 1
    62   28   29 1
    63   28   69 1
    64   28   70 1
    65   29   30 1
    66   29   34 1
    67   29   31 1
    68   31   32 2
    69   31   33 1
    70   33   34 1
    71   33   37 1
    72   33   38 1
    73   34   35 1
    74   34   36 1
    75   35   71 1
    76   35   72 1
    77   36   73 1
    78   36   74 1
    79   36   75 1
    80   39   76 1
    81   39   77 1
    82   39   78 1
    83   40   79 1
    84   40   80 1
    85   40   81 1
@<TRIPOS>MOLECULE
ZINC08592775
   53    57     0     0     0
SMALL
USER_CHARGES

@<TRIPOS>ATOM
      1 C1         -2.4210    0.4290   -0.7078 C.3       1 <0>        -0.1421
      2 C2         -1.7139   -0.9233   -0.5979 C.3       1 <0>        -0.0514
      3 C3         -0.5232   -0.9548   -1.5512 C.3       1 <0>        -0.0970
      4 C4          0.2803   -2.2187   -1.3840 C.2       1 <0>         0.2625
      5 C5          0.2442   -2.9464   -0.2092 C.2       1 <0>        -0.2776
      6 C6          1.0147   -4.1238   -0.0661 C.2       1 <0>         0.0791
      7 C7          1.8019   -4.5418   -1.1252 C.2       1 <0>        -0.1548
      8 C8          1.7985   -3.7396   -2.3503 C.2       1 <0>         0.5366
      9 O1          2.4764   -4.0790   -3.3042 O.2       1 <0>        -0.4949
     10 N1          1.0460   -2.6291   -2.4202 N.am      1 <0>        -0.4433
     11 C9          1.0545   -1.8750   -3.6000 C.ar      1 <0>         0.0861
     12 C10         0.1741   -2.1828   -4.6289 C.ar      1 <0>        -0.0937
     13 C11         0.1850   -1.4372   -5.7914 C.ar      1 <0>        -0.1065
     14 C12         1.0714   -0.3850   -5.9314 C.ar      1 <0>        -0.0966
     15 C13         1.9493   -0.0760   -4.9087 C.ar      1 <0>        -0.1063
     16 C14         1.9395   -0.8142   -3.7415 C.ar      1 <0>        -0.0949
     17 C15         2.6235   -5.7635   -1.0222 C.2       1 <0>         0.1752
     18 N2          2.7476   -6.6071   -0.0086 N.2       1 <0>        -0.4970
     19 C16         3.5364   -7.6631   -0.0888 C.2       1 <0>         0.0953
     20 C17         4.2400   -7.8913   -1.2421 C.2       1 <0>        -0.2145
     21 S1          3.7091   -6.5021   -2.2351 S.3       1 <0>         0.0889
     22 C18         3.6598   -8.5938    1.0597 C.ar      1 <0>        -0.0062
     23 C19         4.4983   -9.7038    0.9732 C.ar      1 <0>        -0.1010
     24 C20         4.6099  -10.5662    2.0447 C.ar      1 <0>        -0.0898
     25 C21         3.8907  -10.3307    3.2036 C.ar      1 <0>        -0.0875
     26 C22         3.0563   -9.2301    3.2945 C.ar      1 <0>        -0.0914
     27 C23         2.9423   -8.3581    2.2311 C.ar      1 <0>        -0.0818
     28 Br1         4.0481  -11.5172    4.6677 Br        1 <0>        -0.0495
     29 C24        -0.6050   -2.5094    0.9117 C.2       1 <0>         0.4193
     30 O2         -0.8091   -3.2350    1.8623 O.2       1 <0>        -0.4452
     31 C25        -1.2157   -1.1259    0.8395 C.3       1 <0>        -0.1579
     32 C26        -2.6915   -2.0424   -0.9624 C.3       1 <0>        -0.1573
     33 H1         -1.7234    1.2258   -0.4498 H         1 <0>         0.0635
     34 H2         -2.7745    0.5722   -1.7289 H         1 <0>         0.0642
     35 H3         -3.2688    0.4525   -0.0232 H         1 <0>         0.0684
     36 H4         -0.8862   -0.8960   -2.5773 H         1 <0>         0.1046
     37 H5          0.1171   -0.0959   -1.3506 H         1 <0>         0.1128
     38 H6          0.9895   -4.6875    0.8547 H         1 <0>         0.1611
     39 H7         -0.5181   -3.0047   -4.5203 H         1 <0>         0.1297
     40 H8         -0.4992   -1.6763   -6.5921 H         1 <0>         0.1360
     41 H9          1.0782    0.1963   -6.8416 H         1 <0>         0.1338
     42 H10         2.6404    0.7464   -5.0211 H         1 <0>         0.1361
     43 H11         2.6221   -0.5692   -2.9412 H         1 <0>         0.1301
     44 H12         4.9234   -8.6913   -1.4856 H         1 <0>         0.1999
     45 H13         5.0593   -9.8888    0.0691 H         1 <0>         0.1339
     46 H14         5.2593  -11.4267    1.9787 H         1 <0>         0.1367
     47 H15         2.4967   -9.0512    4.2007 H         1 <0>         0.1361
     48 H16         2.2944   -7.4971    2.3046 H         1 <0>         0.1421
     49 H17        -0.4632   -0.3751    1.0807 H         1 <0>         0.1081
     50 H18        -2.0512   -1.0523    1.5357 H         1 <0>         0.1053
     51 H19        -3.0435   -1.8988   -1.9840 H         1 <0>         0.0655
     52 H20        -2.1871   -3.0054   -0.8838 H         1 <0>         0.0576
     53 H21        -3.5405   -2.0200   -0.2791 H         1 <0>         0.0696
@<TRIPOS>BOND
     1    1    2 1
     2    1   33 1
     3    1   34 1
     4    1   35 1
     5    2   31 1
     6    2    3 1
     7    2   32 1
     8    3    4 1
     9    3   36 1
    10    3   37 1
    11    4   10 1
    12    4    5 2
    13    5    6 1
    14    5   29 1
    15    6    7 2
    16    6   38 1
    17    7    8 1
    18    7   17 1
    19    8    9 2
    20    8   10 am
    21   10   11 1
    22   11   16 ar
    23   11   12 ar
    24   12   13 ar
    25   12   39 1
    26   13   14 ar
    27   13   40 1
    28   14   15 ar
    29   14   41 1
    30   15   16 ar
    31   15   42 1
    32   16   43 1
    33   17   21 1
    34   17   18 2
    35   18   19 1
    36   19   20 2
    37   19   22 1
    38   20   21 1
    39   20   44 1
    40   22   27 ar
    41   22   23 ar
    42   23   24 ar
    43   23   45 1
    44   24   25 ar
    45   24   46 1
    46   25   26 ar
    47   25   28 1
    48   26   27 ar
    49   26   47 1
    50   27   48 1
    51   29   30 2
    52   29   31 1
    53   31   49 1
    54   31   50 1
    55   32   51 1
    56   32   52 1
    57   32   53 1
@<TRIPOS>MOLECULE
ZINC40063581
   51    55     0     0     0
SMALL
USER_CHARGES

@<TRIPOS>ATOM
      1 C1         -0.1751    1.6059    0.0828 C.3       1 <0>        -0.1247
      2 C2         -0.0965    0.1011    0.0622 C.ar      1 <0>        -0.0233
      3 C3         -0.0139   -0.5643   -1.1530 C.ar      1 <0>        -0.1382
      4 C4          0.0546   -1.9293   -1.1871 C.ar      1 <0>        -0.0336
      5 C5          0.0415   -2.6523    0.0055 C.ar      1 <0>        -0.2146
      6 C6          0.1021   -4.1356   -0.0136 C.2       1 <0>         0.4571
      7 O1          0.3349   -4.7810   -1.0203 O.2       1 <0>        -0.4352
      8 C7         -0.1452   -4.7500    1.2952 C.2       1 <0>        -0.2533
      9 C8         -0.2061   -3.9912    2.4292 C.2       1 <0>         0.0940
     10 O2         -0.0380   -2.6542    2.4192 O.3       1 <0>        -0.1778
     11 C9         -0.0352   -1.9895    1.2414 C.ar      1 <0>         0.1435
     12 C10        -0.1019   -0.5962    1.2493 C.ar      1 <0>        -0.1020
     13 C11        -0.1860    0.1462    2.5581 C.3       1 <0>        -0.1156
     14 C12        -0.4725   -4.8851    3.5699 C.2       1 <0>         0.5679
     15 O3         -0.5892   -4.5245    4.7242 O.2       1 <0>        -0.4656
     16 N1         -0.5684   -6.1617    3.1457 N.am      1 <0>        -0.5887
     17 C13        -0.3688   -6.1736    1.6873 C.3       1 <0>         0.2300
     18 H1          0.5035   -6.7754    1.4321 H         1 <0>         0.1221
     19 C14        -1.5949   -6.7160    0.9992 C.ar      1 <0>        -0.0847
     20 C15        -2.8525   -6.3189    1.4137 C.ar      1 <0>        -0.0925
     21 C16        -3.9773   -6.8157    0.7825 C.ar      1 <0>        -0.0890
     22 C17        -3.8445   -7.7104   -0.2640 C.ar      1 <0>        -0.0812
     23 C18        -2.5860   -8.1075   -0.6784 C.ar      1 <0>        -0.0875
     24 C19        -1.4616   -7.6061   -0.0501 C.ar      1 <0>        -0.0837
     25 Br1        -5.3831   -8.3910   -1.1275 Br        1 <0>        -0.0441
     26 C20        -0.8255   -7.3318    3.9889 C.3       1 <0>         0.1788
     27 C21         0.4814   -7.9955    4.3391 C.ar      1 <0>        -0.1148
     28 C22         0.9305   -9.0723    3.5976 C.ar      1 <0>        -0.0891
     29 C23         2.1291   -9.6810    3.9187 C.ar      1 <0>        -0.1182
     30 C24         2.8797   -9.2135    4.9815 C.ar      1 <0>        -0.0966
     31 C25         2.4318   -8.1371    5.7236 C.ar      1 <0>        -0.1143
     32 C26         1.2347   -7.5237    5.3991 C.ar      1 <0>        -0.0245
     33 Cl1         0.6746   -6.1673    6.3266 Cl        1 <0>        -0.0374
     34 H2          0.8316    2.0218    0.1235 H         1 <0>         0.0828
     35 H3         -0.6765    1.9559   -0.8196 H         1 <0>         0.0768
     36 H4         -0.7372    1.9284    0.9592 H         1 <0>         0.0777
     37 H5         -0.0040   -0.0018   -2.0750 H         1 <0>         0.1397
     38 H6          0.1181   -2.4456   -2.1335 H         1 <0>         0.1449
     39 H7         -1.2319    0.2721    2.8378 H         1 <0>         0.0775
     40 H8          0.3312   -0.4215    3.3316 H         1 <0>         0.0755
     41 H9          0.2820    1.1248    2.4514 H         1 <0>         0.0774
     42 H10        -2.9561   -5.6206    2.2310 H         1 <0>         0.1266
     43 H11        -4.9598   -6.5056    1.1067 H         1 <0>         0.1361
     44 H12        -2.4818   -8.8060   -1.4955 H         1 <0>         0.1382
     45 H13        -0.4788   -7.9129   -0.3763 H         1 <0>         0.1380
     46 H14        -1.3297   -7.0175    4.9027 H         1 <0>         0.1099
     47 H15        -1.4578   -8.0368    3.4491 H         1 <0>         0.1022
     48 H16         0.3445   -9.4381    2.7675 H         1 <0>         0.1331
     49 H17         2.4794  -10.5225    3.3393 H         1 <0>         0.1318
     50 H18         3.8161   -9.6898    5.2321 H         1 <0>         0.1336
     51 H19         3.0181   -7.7722    6.5540 H         1 <0>         0.1349
@<TRIPOS>BOND
     1    1    2 1
     2    1   34 1
     3    1   35 1
     4    1   36 1
     5    2   12 ar
     6    2    3 ar
     7    3    4 ar
     8    3   37 1
     9    4    5 ar
    10    4   38 1
    11    5   11 ar
    12    5    6 1
    13    6    7 2
    14    6    8 1
    15    8   17 1
    16    8    9 2
    17    9   10 1
    18    9   14 1
    19   10   11 1
    20   11   12 ar
    21   12   13 1
    22   13   39 1
    23   13   40 1
    24   13   41 1
    25   14   15 2
    26   14   16 am
    27   16   17 1
    28   16   26 1
    29   17   18 1
    30   17   19 1
    31   19   24 ar
    32   19   20 ar
    33   20   21 ar
    34   20   42 1
    35   21   22 ar
    36   21   43 1
    37   22   23 ar
    38   22   25 1
    39   23   24 ar
    40   23   44 1
    41   24   45 1
    42   26   27 1
    43   26   46 1
    44   26   47 1
    45   27   32 ar
    46   27   28 ar
    47   28   29 ar
    48   28   48 1
    49   29   30 ar
    50   29   49 1
    51   30   31 ar
    52   30   50 1
    53   31   32 ar
    54   31   51 1
    55   32   33 1
@<TRIPOS>MOLECULE
ZINC59382200
   66    72     0     0     0
SMALL
USER_CHARGES

@<TRIPOS>ATOM
      1 C1         -0.0984    1.4894   -2.1793 C.3       1 <0>        -0.1175
      2 C2         -0.0635    0.0307   -1.8024 C.ar      1 <0>        -0.0667
      3 C3         -0.0500   -0.9372   -2.7902 C.ar      1 <0>        -0.1183
      4 C4         -0.0180   -2.2747   -2.4479 C.ar      1 <0>        -0.0866
      5 C5          0.0010   -2.6474   -1.1105 C.ar      1 <0>         0.1028
      6 C6         -0.0122   -1.6737   -0.1213 C.ar      1 <0>        -0.0593
      7 C7         -0.0393   -0.3372   -0.4699 C.ar      1 <0>        -0.1147
      8 C8          0.0078   -2.0740    1.3314 C.3       1 <0>        -0.1161
      9 N1          0.0330   -4.0044   -0.7599 N.am      1 <0>        -0.5240
     10 C9         -1.0761   -4.7315   -0.5749 C.2       1 <0>         0.5354
     11 O1         -2.2116   -4.3215   -0.6848 O.2       1 <0>        -0.4641
     12 C10        -0.6861   -6.1469   -0.2073 C.3       1 <0>        -0.1151
     13 H1         -1.0644   -6.4111    0.7802 H         1 <0>         0.1376
     14 C11         0.8521   -6.1125   -0.2146 C.3       1 <0>        -0.0946
     15 H2          1.2514   -6.3617    0.7685 H         1 <0>         0.1392
     16 C12         1.1751   -4.6818   -0.5880 C.2       1 <0>         0.5349
     17 O2          2.2901   -4.2216   -0.7090 O.2       1 <0>        -0.4382
     18 C13         1.4243   -7.0553   -1.2946 C.3       1 <0>         0.0812
     19 C14         0.7772   -6.6171   -2.5990 C.ar      1 <0>        -0.0822
     20 C15         1.4597   -6.2144   -3.7112 C.ar      1 <0>        -0.0962
     21 C16         0.7406   -5.8392   -4.8386 C.ar      1 <0>        -0.1132
     22 C17        -0.6414   -5.8740   -4.8316 C.ar      1 <0>        -0.1122
     23 C18        -1.3291   -6.2841   -3.6966 C.ar      1 <0>        -0.0939
     24 C19        -0.6155   -6.6510   -2.5916 C.ar      1 <0>        -0.0891
     25 C20        -1.2390   -7.1074   -1.2818 C.3       1 <0>         0.0142
     26 C21        -0.5775   -8.4485   -1.0063 C.ar      1 <0>        -0.0774
     27 C22         0.8288   -8.4220   -0.9952 C.ar      1 <0>        -0.0721
     28 C23         1.5553   -9.5516   -0.7478 C.ar      1 <0>        -0.0942
     29 C24         0.8807  -10.7374   -0.4869 C.ar      1 <0>        -0.1135
     30 C25        -0.5014  -10.7698   -0.4788 C.ar      1 <0>        -0.1130
     31 C26        -1.2477   -9.6110   -0.7527 C.ar      1 <0>        -0.0966
     32 C27         2.9307   -7.0629   -1.3342 C.2       1 <0>         0.1626
     33 N2          3.6033   -6.4289   -0.4329 N.2       1 <0>        -0.4278
     34 C28         4.9710   -6.3500   -0.5256 C.ar      1 <0>         0.0804
     35 C29         5.5713   -5.9814   -1.7298 C.ar      1 <0>        -0.1356
     36 C30         6.9460   -5.9040   -1.8166 C.ar      1 <0>        -0.1119
     37 C31         7.7291   -6.1910   -0.7125 C.ar      1 <0>        -0.1201
     38 C32         7.1399   -6.5575    0.4840 C.ar      1 <0>        -0.1108
     39 C33         5.7656   -6.6325    0.5853 C.ar      1 <0>        -0.0696
     40 C34         5.1250   -7.0254    1.8916 C.3       1 <0>        -0.1110
     41 H3          0.9205    1.8623   -2.2829 H         1 <0>         0.0744
     42 H4         -0.6266    1.6077   -3.1254 H         1 <0>         0.0697
     43 H5         -0.6144    2.0532   -1.4021 H         1 <0>         0.0695
     44 H6         -0.0648   -0.6467   -3.8303 H         1 <0>         0.1297
     45 H7         -0.0082   -3.0301   -3.2197 H         1 <0>         0.1235
     46 H8         -0.0458    0.4209    0.2992 H         1 <0>         0.1306
     47 H9          1.0400   -2.1484    1.6736 H         1 <0>         0.0762
     48 H10        -0.5177   -1.3238    1.9223 H         1 <0>         0.0754
     49 H11        -0.4844   -3.0394    1.4490 H         1 <0>         0.0589
     50 H12         2.5394   -6.1878   -3.7139 H         1 <0>         0.1240
     51 H13         1.2645   -5.5177   -5.7266 H         1 <0>         0.1268
     52 H14        -1.1900   -5.5801   -5.7143 H         1 <0>         0.1274
     53 H15        -2.4087   -6.3120   -3.6881 H         1 <0>         0.1314
     54 H16        -2.3281   -7.1484   -1.2985 H         1 <0>         0.1264
     55 H17         2.6350   -9.5235   -0.7552 H         1 <0>         0.1248
     56 H18         1.4395  -11.6402   -0.2895 H         1 <0>         0.1263
     57 H19        -1.0150  -11.6977   -0.2752 H         1 <0>         0.1265
     58 H20        -2.3274   -9.6305   -0.7359 H         1 <0>         0.1324
     59 H21         3.4477   -7.5986   -2.1166 H         1 <0>         0.1100
     60 H22         4.9612   -5.7575   -2.5924 H         1 <0>         0.1196
     61 H23         7.4120   -5.6192   -2.7483 H         1 <0>         0.1242
     62 H24         8.8048   -6.1290   -0.7855 H         1 <0>         0.1244
     63 H25         7.7565   -6.7810    1.3421 H         1 <0>         0.1269
     64 H26         5.0087   -8.1085    1.9280 H         1 <0>         0.0668
     65 H27         5.7565   -6.6998    2.7183 H         1 <0>         0.0657
     66 H28         4.1466   -6.5519    1.9734 H         1 <0>         0.0760
@<TRIPOS>BOND
     1    1    2 1
     2    1   41 1
     3    1   42 1
     4    1   43 1
     5    2    7 ar
     6    2    3 ar
     7    3    4 ar
     8    3   44 1
     9    4    5 ar
    10    4   45 1
    11    5    6 ar
    12    5    9 1
    13    6    7 ar
    14    6    8 1
    15    7   46 1
    16    8   47 1
    17    8   48 1
    18    8   49 1
    19    9   16 am
    20    9   10 am
    21   10   11 2
    22   10   12 1
    23   12   13 1
    24   12   25 1
    25   12   14 1
    26   14   15 1
    27   14   16 1
    28   14   18 1
    29   16   17 2
    30   18   27 1
    31   18   19 1
    32   18   32 1
    33   19   24 ar
    34   19   20 ar
    35   20   21 ar
    36   20   50 1
    37   21   22 ar
    38   21   51 1
    39   22   23 ar
    40   22   52 1
    41   23   24 ar
    42   23   53 1
    43   24   25 1
    44   25   26 1
    45   25   54 1
    46   26   31 ar
    47   26   27 ar
    48   27   28 ar
    49   28   29 ar
    50   28   55 1
    51   29   30 ar
    52   29   56 1
    53   30   31 ar
    54   30   57 1
    55   31   58 1
    56   32   33 2
    57   32   59 1
    58   33   34 1
    59   34   39 ar
    60   34   35 ar
    61   35   36 ar
    62   35   60 1
    63   36   37 ar
    64   36   61 1
    65   37   38 ar
    66   37   62 1
    67   38   39 ar
    68   38   63 1
    69   39   40 1
    70   40   64 1
    71   40   65 1
    72   40   66 1
@<TRIPOS>MOLECULE
ZINC19939911
   52    55     0     0     0
SMALL
USER_CHARGES
(5Z)-1-(5-chloro-2-methyl-phenyl)-5-[[3-[(4-nitrophenyl)methoxy]phenyl]methylene]hexahydropyrimidine-2,4,6-trione
@<TRIPOS>ATOM
      1 C1          2.3702   -3.0412    4.6698 C.3       1 <0>        -0.1142
      2 C2          1.5272   -4.0318    3.9086 C.ar      1 <0>        -0.0612
      3 C3          0.4624   -4.6548    4.5303 C.ar      1 <0>        -0.1048
      4 C4         -0.3077   -5.5685    3.8352 C.ar      1 <0>        -0.1084
      5 C5         -0.0185   -5.8570    2.5127 C.ar      1 <0>        -0.0329
      6 C6          1.0416   -5.2317    1.8839 C.ar      1 <0>        -0.0885
      7 C7          1.8164   -4.3141    2.5805 C.ar      1 <0>         0.1706
      8 N1          2.8920   -3.6783    1.9458 N.am      1 <0>        -0.5459
      9 C8          2.6806   -2.5118    1.3019 C.2       1 <0>         0.5595
     10 O1          1.5736   -2.0093    1.2661 O.2       1 <0>        -0.5049
     11 C9          3.8310   -1.8621    0.6411 C.2       1 <0>        -0.2474
     12 C10         3.6931   -0.6687   -0.0363 C.2       1 <0>         0.0258
     13 C11         2.3568   -0.1298   -0.3074 C.ar      1 <0>        -0.0370
     14 C12         2.0822    1.2243   -0.0718 C.ar      1 <0>        -0.1264
     15 C13         0.8243    1.7252   -0.3285 C.ar      1 <0>        -0.0952
     16 C14        -0.1697    0.8963   -0.8187 C.ar      1 <0>        -0.1970
     17 C15         0.0907   -0.4473   -1.0565 C.ar      1 <0>         0.1144
     18 C16         1.3483   -0.9653   -0.8035 C.ar      1 <0>        -0.0594
     19 O2         -0.8913   -1.2541   -1.5380 O.3       1 <0>        -0.3056
     20 C17        -2.1659   -0.6534   -1.7762 C.3       1 <0>         0.0923
     21 C18        -3.1204   -1.6932   -2.3042 C.ar      1 <0>        -0.0382
     22 C19        -3.2293   -1.9034   -3.6661 C.ar      1 <0>        -0.0945
     23 C20        -4.1014   -2.8606   -4.1502 C.ar      1 <0>        -0.0573
     24 C21        -4.8722   -3.6001   -3.2728 C.ar      1 <0>        -0.0386
     25 C22        -4.7672   -3.3862   -1.9112 C.ar      1 <0>        -0.0552
     26 C23        -3.8913   -2.4328   -1.4269 C.ar      1 <0>        -0.0913
     27 N2         -5.8105   -4.6207   -3.7915 N.pl3     1 <0>         0.0275
     28 O3         -6.4900   -5.2721   -3.0185 O.2       1 <0>        -0.1576
     29 O4         -5.9031   -4.8092   -4.9912 O.3       1 <0>        -0.1592
     30 C24         5.1349   -2.5513    0.7332 C.2       1 <0>         0.5336
     31 O5          6.1281   -2.0823    0.2110 O.3       1 <0>        -0.5560
     32 N3          5.1941   -3.7121    1.4180 N.2       1 <0>        -0.6987
     33 C25         4.1064   -4.2432    1.9932 C.2       1 <0>         0.6632
     34 O6          4.2279   -5.2944    2.5909 O.2       1 <0>        -0.5736
     35 Cl1        -0.9883   -7.0047    1.6431 Cl        1 <0>        -0.0763
     36 H1          1.9905   -2.9505    5.6982 H         1 <0>         0.0679
     37 H2          2.3219   -2.0608    4.1733 H         1 <0>         0.0674
     38 H3          3.4134   -3.3893    4.6934 H         1 <0>         0.0767
     39 H4          0.2344   -4.4316    5.5621 H         1 <0>         0.1340
     40 H5         -1.1367   -6.0578    4.3248 H         1 <0>         0.1328
     41 H6          1.2668   -5.4563    0.8518 H         1 <0>         0.1297
     42 H7          4.5857   -0.1212   -0.3732 H         1 <0>         0.1577
     43 H8          2.8552    1.8742    0.3111 H         1 <0>         0.1265
     44 H9          0.6133    2.7686   -0.1464 H         1 <0>         0.1241
     45 H10        -1.1518    1.2972   -1.0216 H         1 <0>         0.1229
     46 H11         1.5516   -2.0098   -0.9881 H         1 <0>         0.1237
     47 H12        -2.5579   -0.2399   -0.8353 H         1 <0>         0.0801
     48 H13        -2.0582    0.1544   -2.5150 H         1 <0>         0.0795
     49 H14        -2.6303   -1.3225   -4.3518 H         1 <0>         0.1505
     50 H15        -4.1837   -3.0274   -5.2140 H         1 <0>         0.1564
     51 H16        -5.3697   -3.9638   -1.2258 H         1 <0>         0.1570
     52 H17        -3.8094   -2.2654   -0.3630 H         1 <0>         0.1514
@<TRIPOS>BOND
     1    1    2 1
     2    1   36 1
     3    1   37 1
     4    1   38 1
     5    2    7 ar
     6    2    3 ar
     7    3    4 ar
     8    3   39 1
     9    4    5 ar
    10    4   40 1
    11    5    6 ar
    12    5   35 1
    13    6    7 ar
    14    6   41 1
    15    7    8 1
    16    8   33 am
    17    8    9 am
    18    9   10 2
    19    9   11 1
    20   11   12 2
    21   11   30 1
    22   12   13 1
    23   12   42 1
    24   13   18 ar
    25   13   14 ar
    26   14   15 ar
    27   14   43 1
    28   15   16 ar
    29   15   44 1
    30   16   17 ar
    31   16   45 1
    32   17   18 ar
    33   17   19 1
    34   18   46 1
    35   19   20 1
    36   20   21 1
    37   20   47 1
    38   20   48 1
    39   21   26 ar
    40   21   22 ar
    41   22   23 ar
    42   22   49 1
    43   23   24 ar
    44   23   50 1
    45   24   25 ar
    46   24   27 1
    47   25   26 ar
    48   25   51 1
    49   26   52 1
    50   27   28 2
    51   27   29 1
    52   30   31 1
    53   30   32 2
    54   32   33 1
    55   33   34 2
@<TRIPOS>MOLECULE
ZINC33429091
   57    62     0     0     0
SMALL
USER_CHARGES
(4aS,5S)-1'-(2,5-dichlorophenyl)-3-phenyl-spiro[2,4,4a,6-tetrahydro-1H-pyrazino[1,2-a]quinoline-5,5'-hexahydropyrimidine]-2',4',6'-trione
@<TRIPOS>ATOM
      1 C1          1.2080   -0.6807   -0.0131 C.ar      1 <0>        -0.1484
      2 C2          0.0021   -0.0041    0.0020 C.ar      1 <0>        -0.0969
      3 C3         -0.0167    1.3768    0.0096 C.ar      1 <0>        -0.1407
      4 C4          1.1777    2.0861    0.0020 C.ar      1 <0>         0.1191
      5 C5          2.3873    1.4033   -0.0123 C.ar      1 <0>        -0.1692
      6 C6          2.3988    0.0223   -0.0203 C.ar      1 <0>        -0.0905
      7 N1          1.1624    3.4827    0.0097 N.pl3     1 <0>        -0.4880
      8 C7          0.4015    3.9947    1.1575 C.3       1 <0>         0.0552
      9 C8          0.3419    5.5234    1.0917 C.3       1 <0>         0.0585
     10 N2          1.7096    6.0585    1.0783 N.pl3     1 <0>        -0.4761
     11 C9          1.7243    7.4464    1.1790 C.ar      1 <0>         0.1792
     12 C10         0.7285    8.0550    1.9449 C.ar      1 <0>        -0.1703
     13 C11         0.6967    9.4254    2.0870 C.ar      1 <0>        -0.0939
     14 C12         1.6564   10.2060    1.4685 C.ar      1 <0>        -0.1618
     15 C13         2.6419    9.6102    0.7073 C.ar      1 <0>        -0.0861
     16 C14         2.6790    8.2327    0.5569 C.ar      1 <0>        -0.1117
     17 C15         3.7745    7.6398   -0.2926 C.3       1 <0>        -0.0468
     18 C16         3.8785    6.1347   -0.0299 C.3       1 <0>        -0.1385
     19 C17         2.4619    5.5519   -0.0706 C.3       1 <0>         0.1337
     20 H1          1.9323    5.8687   -0.9812 H         1 <0>         0.0726
     21 C18         2.5292    4.0248   -0.0022 C.3       1 <0>         0.0505
     22 C19         4.4802    5.9006    1.3262 C.2       1 <0>         0.5092
     23 O1          3.9225    6.3515    2.3037 O.3       1 <0>        -0.5143
     24 N3          5.6159    5.2066    1.4867 N.2       1 <0>        -0.7019
     25 C20         6.2796    4.6814    0.4459 C.2       1 <0>         0.6628
     26 O2          7.3053    4.0628    0.6488 O.2       1 <0>        -0.5700
     27 N4          5.8388    4.8216   -0.8135 N.am      1 <0>        -0.5473
     28 C21         4.7153    5.4942   -1.1005 C.2       1 <0>         0.5383
     29 O3          4.3648    5.5886   -2.2572 O.2       1 <0>        -0.5149
     30 C22         6.5746    4.2474   -1.8601 C.ar      1 <0>         0.1797
     31 C23         7.5705    4.9784   -2.4927 C.ar      1 <0>        -0.0826
     32 C24         8.2981    4.4078   -3.5203 C.ar      1 <0>        -0.0238
     33 C25         8.0261    3.1129   -3.9264 C.ar      1 <0>        -0.0998
     34 C26         7.0309    2.3845   -3.3021 C.ar      1 <0>        -0.0940
     35 C27         6.3043    2.9478   -2.2697 C.ar      1 <0>        -0.0219
     36 Cl1         5.0547    2.0322   -1.4862 Cl        1 <0>        -0.0472
     37 Cl2         9.5491    5.3187   -4.3069 Cl        1 <0>        -0.0640
     38 H2          1.2198   -1.7606   -0.0190 H         1 <0>         0.1193
     39 H3         -0.9261   -0.5561    0.0076 H         1 <0>         0.1219
     40 H4         -0.9588    1.9047    0.0170 H         1 <0>         0.1243
     41 H5          3.3177    1.9517   -0.0171 H         1 <0>         0.1235
     42 H6          3.3389   -0.5092   -0.0317 H         1 <0>         0.1195
     43 H7         -0.6199    3.5871    1.1315 H         1 <0>         0.0926
     44 H8          0.8952    3.6875    2.0912 H         1 <0>         0.0586
     45 H9         -0.1843    5.8307    0.1759 H         1 <0>         0.0559
     46 H10        -0.1968    5.9075    1.9705 H         1 <0>         0.0996
     47 H11        -0.0218    7.4479    2.4296 H         1 <0>         0.1218
     48 H12        -0.0768    9.8893    2.6811 H         1 <0>         0.1165
     49 H13         1.6351   11.2799    1.5812 H         1 <0>         0.1154
     50 H14         3.3901   10.2221    0.2253 H         1 <0>         0.1170
     51 H15         3.5462    7.8083   -1.3554 H         1 <0>         0.0865
     52 H16         4.7324    8.1194   -0.0428 H         1 <0>         0.0807
     53 H17         3.0532    3.7183    0.9151 H         1 <0>         0.0641
     54 H18         3.0692    3.6387   -0.8793 H         1 <0>         0.0932
     55 H19         7.7799    5.9906   -2.1793 H         1 <0>         0.1409
     56 H20         8.5927    2.6707   -4.7325 H         1 <0>         0.1441
     57 H21         6.8211    1.3741   -3.6208 H         1 <0>         0.1463
@<TRIPOS>BOND
     1    1    6 ar
     2    1    2 ar
     3    1   38 1
     4    2    3 ar
     5    2   39 1
     6    3    4 ar
     7    3   40 1
     8    4    5 ar
     9    4    7 1
    10    5    6 ar
    11    5   41 1
    12    6   42 1
    13    7   21 1
    14    7    8 1
    15    8    9 1
    16    8   43 1
    17    8   44 1
    18    9   10 1
    19    9   45 1
    20    9   46 1
    21   10   19 1
    22   10   11 1
    23   11   16 ar
    24   11   12 ar
    25   12   13 ar
    26   12   47 1
    27   13   14 ar
    28   13   48 1
    29   14   15 ar
    30   14   49 1
    31   15   16 ar
    32   15   50 1
    33   16   17 1
    34   17   18 1
    35   17   51 1
    36   17   52 1
    37   18   28 1
    38   18   19 1
    39   18   22 1
    40   19   20 1
    41   19   21 1
    42   21   53 1
    43   21   54 1
    44   22   23 1
    45   22   24 2
    46   24   25 1
    47   25   26 2
    48   25   27 am
    49   27   28 am
    50   27   30 1
    51   28   29 2
    52   30   35 ar
    53   30   31 ar
    54   31   32 ar
    55   31   55 1
    56   32   33 ar
    57   32   37 1
    58   33   34 ar
    59   33   56 1
    60   34   35 ar
    61   34   57 1
    62   35   36 1
@<TRIPOS>MOLECULE
ZINC36544617
   58    60     0     0     0
SMALL
USER_CHARGES

@<TRIPOS>ATOM
      1 C1          0.7159    0.7339    1.0302 C.3       1 <0>        -0.1628
      2 C2          0.1968   -0.5575    0.3950 C.3       1 <0>         0.1728
      3 C3          0.6497   -1.7555    1.2321 C.3       1 <0>        -0.1616
      4 C4         -1.3319   -0.5212    0.3420 C.3       1 <0>        -0.1549
      5 N1          0.7297   -0.6819   -0.9639 N.am      1 <0>        -0.7184
      6 C5          2.0617   -0.7335   -1.1633 C.2       1 <0>         0.5229
      7 O1          2.8190   -0.6770   -0.2178 O.2       1 <0>        -0.5005
      8 C6          2.6099   -0.8614   -2.5612 C.3       1 <0>         0.1806
      9 H1          1.8888   -0.4588   -3.2726 H         1 <0>         0.1008
     10 C7          2.8629   -2.3145   -2.8706 C.ar      1 <0>        -0.0967
     11 C8          3.8849   -2.9889   -2.2284 C.ar      1 <0>        -0.0788
     12 C9          4.1192   -4.3208   -2.5105 C.ar      1 <0>        -0.1454
     13 C10         3.3278   -4.9817   -3.4387 C.ar      1 <0>         0.1083
     14 C11         2.3028   -4.3028   -4.0813 C.ar      1 <0>        -0.1456
     15 C12         2.0692   -2.9724   -3.7919 C.ar      1 <0>        -0.0729
     16 O2          3.5566   -6.2918   -3.7183 O.3       1 <0>        -0.4987
     17 N2          3.8660   -0.1144   -2.6634 N.am      1 <0>        -0.5692
     18 C13         4.4104    0.4972   -1.5290 C.ar      1 <0>         0.1809
     19 C14         5.3443   -0.1785   -0.7547 C.ar      1 <0>        -0.0792
     20 C15         5.8804    0.4281    0.3643 C.ar      1 <0>        -0.0977
     21 C16         5.4880    1.7071    0.7149 C.ar      1 <0>        -0.1085
     22 C17         4.5584    2.3834   -0.0533 C.ar      1 <0>        -0.1082
     23 C18         4.0221    1.7845   -1.1778 C.ar      1 <0>        -0.0318
     24 Cl1         2.8604    2.6367   -2.1462 Cl        1 <0>        -0.0671
     25 C19         4.4970   -0.0164   -3.8503 C.2       1 <0>         0.6045
     26 O3          3.9712   -0.4524   -4.8563 O.2       1 <0>        -0.5009
     27 C20         5.8255    0.6199   -3.9289 C.ar      1 <0>        -0.2751
     28 C21         6.8246    0.2757   -3.0148 C.ar      1 <0>         0.0238
     29 C22         8.0634    0.8737   -3.0936 C.ar      1 <0>        -0.1850
     30 C23         8.3238    1.8156   -4.0757 C.ar      1 <0>        -0.0082
     31 C24         7.3455    2.1653   -4.9850 C.ar      1 <0>        -0.2399
     32 C25         6.0947    1.5689   -4.9244 C.ar      1 <0>         0.3360
     33 O4          5.1344    1.9071   -5.8209 O.3       1 <0>        -0.6409
     34 N3          9.1208    0.5084   -2.1243 N.pl3     1 <0>         0.0753
     35 O5          8.8965   -0.3129   -1.2660 O.2       1 <0>        -0.2173
     36 O6         10.2088    1.0314   -2.1909 O.3       1 <0>        -0.2228
     37 H2          1.8050    0.7080    1.0680 H         1 <0>         0.0819
     38 H3          0.3933    1.5874    0.4339 H         1 <0>         0.0537
     39 H4          0.3194    0.8265    2.0413 H         1 <0>         0.0590
     40 H5          0.2532   -1.6630    2.2432 H         1 <0>         0.0598
     41 H6          0.2799   -2.6756    0.7796 H         1 <0>         0.0517
     42 H7          1.7388   -1.7814    1.2699 H         1 <0>         0.0803
     43 H8         -1.6545    0.3323   -0.2543 H         1 <0>         0.0618
     44 H9         -1.7017   -1.4413   -0.1105 H         1 <0>         0.0609
     45 H10        -1.7284   -0.4287    1.3531 H         1 <0>         0.0720
     46 H11         0.1240   -0.7271   -1.7202 H         1 <0>         0.3985
     47 H12         4.5007   -2.4740   -1.5058 H         1 <0>         0.1302
     48 H13         4.9181   -4.8470   -2.0091 H         1 <0>         0.1293
     49 H14         1.6853   -4.8151   -4.8044 H         1 <0>         0.1290
     50 H15         1.2685   -2.4446   -4.2887 H         1 <0>         0.1280
     51 H16         3.0646   -6.9057   -3.1561 H         1 <0>         0.3869
     52 H17         5.6510   -1.1776   -1.0270 H         1 <0>         0.1271
     53 H18         6.6067   -0.0972    0.9667 H         1 <0>         0.1303
     54 H19         5.9084    2.1785    1.5909 H         1 <0>         0.1264
     55 H20         4.2538    3.3819    0.2233 H         1 <0>         0.1274
     56 H21         6.6260   -0.4578   -2.2474 H         1 <0>         0.1357
     57 H22         9.2976    2.2793   -4.1301 H         1 <0>         0.1268
     58 H23         7.5559    2.9010   -5.7472 H         1 <0>         0.1252
@<TRIPOS>BOND
     1    1    2 1
     2    1   37 1
     3    1   38 1
     4    1   39 1
     5    2    3 1
     6    2    4 1
     7    2    5 1
     8    3   40 1
     9    3   41 1
    10    3   42 1
    11    4   43 1
    12    4   44 1
    13    4   45 1
    14    5    6 am
    15    5   46 1
    16    6    7 2
    17    6    8 1
    18    8    9 1
    19    8   10 1
    20    8   17 1
    21   10   15 ar
    22   10   11 ar
    23   11   12 ar
    24   11   47 1
    25   12   13 ar
    26   12   48 1
    27   13   14 ar
    28   13   16 1
    29   14   15 ar
    30   14   49 1
    31   15   50 1
    32   16   51 1
    33   17   18 1
    34   17   25 am
    35   18   23 ar
    36   18   19 ar
    37   19   20 ar
    38   19   52 1
    39   20   21 ar
    40   20   53 1
    41   21   22 ar
    42   21   54 1
    43   22   23 ar
    44   22   55 1
    45   23   24 1
    46   25   26 2
    47   25   27 1
    48   27   32 ar
    49   27   28 ar
    50   28   29 ar
    51   28   56 1
    52   29   30 ar
    53   29   34 1
    54   30   31 ar
    55   30   57 1
    56   31   32 ar
    57   31   58 1
    58   32   33 1
    59   34   35 2
    60   34   36 1
@<TRIPOS>MOLECULE
ZINC35622407
   50    54     0     0     0
SMALL
USER_CHARGES

@<TRIPOS>ATOM
      1 C1         -0.0755    1.1991    0.7220 C.ar      1 <0>        -0.1035
      2 C2          1.1026    1.8994    0.9160 C.ar      1 <0>        -0.1536
      3 C3          2.3134    1.2699    0.7545 C.ar      1 <0>        -0.0747
      4 C4          2.3821   -0.0894    0.3901 C.ar      1 <0>         0.1266
      5 C5          1.1889   -0.7864    0.1926 C.ar      1 <0>         0.1607
      6 C6         -0.0303   -0.1314    0.3640 C.ar      1 <0>        -0.1680
      7 N1          1.1376   -2.1217   -0.1789 N.pl3     1 <0>        -0.7473
      8 C7          2.0795   -3.1358    0.2337 C.3       1 <0>         0.2445
      9 H1          1.6722   -4.1188   -0.0028 H         1 <0>         0.1169
     10 C8          3.4135   -2.9673   -0.4714 C.3       1 <0>        -0.1525
     11 C9          4.1140   -1.7299   -0.0327 C.2       1 <0>         0.3939
     12 N2          3.6150   -0.6119    0.2659 N.2       1 <0>        -0.5426
     13 C10         5.5715   -1.8235    0.0647 C.2       1 <0>        -0.4538
     14 C11         6.3606   -1.6168   -1.0549 C.2       1 <0>         0.5040
     15 N3          7.7073   -1.6502   -1.0883 N.am      1 <0>        -0.6484
     16 H2          8.1401   -1.2501   -1.8586 H         1 <0>         0.4051
     17 C12         8.5033   -2.1875   -0.1500 C.2       1 <0>         0.5548
     18 O1          9.7123   -2.1389   -0.2699 O.2       1 <0>        -0.4939
     19 S1          7.7768   -2.9663    1.2625 S.3       1 <0>        -0.2057
     20 C13         6.2112   -2.1322    1.3558 C.2       1 <0>         0.4372
     21 O2          5.6962   -1.8364    2.4190 O.2       1 <0>        -0.4421
     22 O3          5.7247   -1.3600   -2.2143 O.3       1 <0>        -0.6575
     23 C14         2.2929   -3.0351    1.7221 C.2       1 <0>        -0.0045
     24 C15         2.4164   -4.0748    2.5701 C.2       1 <0>        -0.2065
     25 C16         2.6004   -3.5363    3.8594 C.2       1 <0>        -0.1852
     26 C17         2.5788   -2.1836    3.7255 C.2       1 <0>         0.0308
     27 O4          2.3973   -1.8940    2.4227 O.3       1 <0>        -0.1312
     28 C18         2.7339   -1.2013    4.8188 C.ar      1 <0>         0.0025
     29 C19         2.9288   -1.6373    6.1307 C.ar      1 <0>        -0.0714
     30 C20         3.0734   -0.7153    7.1463 C.ar      1 <0>        -0.1179
     31 C21         3.0256    0.6393    6.8672 C.ar      1 <0>        -0.0765
     32 C22         2.8323    1.0781    5.5696 C.ar      1 <0>        -0.1796
     33 C23         2.6920    0.1663    4.5435 C.ar      1 <0>        -0.0431
     34 C24         2.7806    2.5551    5.2753 C.3       1 <0>         0.5089
     35 F1          2.9512    3.2737    6.4635 F         1 <0>        -0.1804
     36 F2          3.8014    2.8879    4.3784 F         1 <0>        -0.1708
     37 F3          1.5411    2.8750    4.7107 F         1 <0>        -0.1747
     38 H3         -1.0270    1.6922    0.8549 H         1 <0>         0.1155
     39 H4          1.0701    2.9424    1.1943 H         1 <0>         0.1165
     40 H5          3.2264    1.8257    0.9091 H         1 <0>         0.1223
     41 H6         -0.9519   -0.6740    0.2138 H         1 <0>         0.1120
     42 H7          0.4120   -2.3961   -0.7613 H         1 <0>         0.3947
     43 H8          4.0433   -3.8294   -0.2516 H         1 <0>         0.0932
     44 H9          3.2436   -2.9175   -1.5469 H         1 <0>         0.0993
     45 H10         2.3805   -5.1226    2.3110 H         1 <0>         0.1480
     46 H11         2.7325   -4.0910    4.7766 H         1 <0>         0.1459
     47 H12         2.9660   -2.6942    6.3499 H         1 <0>         0.1354
     48 H13         3.2239   -1.0512    8.1617 H         1 <0>         0.1385
     49 H14         3.1393    1.3571    7.6661 H         1 <0>         0.1382
     50 H15         2.5459    0.5102    3.5302 H         1 <0>         0.1401
@<TRIPOS>BOND
     1    1    6 ar
     2    1    2 ar
     3    1   38 1
     4    2    3 ar
     5    2   39 1
     6    3    4 ar
     7    3   40 1
     8    4   12 1
     9    4    5 ar
    10    5    6 ar
    11    5    7 1
    12    6   41 1
    13    7    8 1
    14    7   42 1
    15    8    9 1
    16    8   10 1
    17    8   23 1
    18   10   11 1
    19   10   43 1
    20   10   44 1
    21   11   12 2
    22   11   13 1
    23   13   20 1
    24   13   14 2
    25   14   15 1
    26   14   22 1
    27   15   16 1
    28   15   17 am
    29   17   18 2
    30   17   19 1
    31   19   20 1
    32   20   21 2
    33   23   27 1
    34   23   24 2
    35   24   25 1
    36   24   45 1
    37   25   26 2
    38   25   46 1
    39   26   27 1
    40   26   28 1
    41   28   33 ar
    42   28   29 ar
    43   29   30 ar
    44   29   47 1
    45   30   31 ar
    46   30   48 1
    47   31   32 ar
    48   31   49 1
    49   32   33 ar
    50   32   34 1
    51   33   50 1
    52   34   35 1
    53   34   36 1
    54   34   37 1
@<TRIPOS>MOLECULE
ZINC59293317
   62    66     0     0     0
SMALL
USER_CHARGES

@<TRIPOS>ATOM
      1 C1         -2.0317    1.3003    1.9155 C.3       1 <0>        -0.1511
      2 C2         -1.9635   -0.2254    1.8224 C.3       1 <0>         0.0657
      3 O1         -0.8488   -0.6995    2.5805 O.3       1 <0>        -0.3382
      4 C3         -0.6455   -2.0346    2.6023 C.2       1 <0>         0.5416
      5 O2         -1.3965   -2.7752    1.9928 O.2       1 <0>        -0.5418
      6 C4          0.4306   -2.5685    3.3271 C.2       1 <0>        -0.2994
      7 C5          0.7181   -3.8906    3.2620 C.2       1 <0>         0.4960
      8 N1          1.7732   -4.4890    3.9556 N.am      1 <0>        -0.5007
      9 C6          2.0514   -5.8060    3.8838 C.2       1 <0>         0.5403
     10 O3          1.3779   -6.5482    3.1940 O.2       1 <0>        -0.4776
     11 C7          3.1872   -6.3235    4.6576 C.2       1 <0>        -0.2424
     12 C8          3.6607   -7.5919    4.7490 C.2       1 <0>         0.0249
     13 C9          3.1345   -8.6386    3.8615 C.ar      1 <0>        -0.0774
     14 C10         2.8101   -8.3375    2.5338 C.ar      1 <0>        -0.0469
     15 C11         2.3175   -9.3252    1.7077 C.ar      1 <0>        -0.1300
     16 C12         2.1431  -10.6115    2.1882 C.ar      1 <0>        -0.1078
     17 C13         2.4615  -10.9176    3.5001 C.ar      1 <0>        -0.1347
     18 C14         2.9606   -9.9430    4.3377 C.ar      1 <0>        -0.0931
     19 S1          3.7770   -4.8341    5.4455 S.3       1 <0>         0.1548
     20 C15         2.5810   -3.7060    4.7587 C.2       1 <0>         0.0513
     21 C16         2.4250   -2.3695    4.9302 C.2       1 <0>        -0.0115
     22 C17         1.2970   -1.6760    4.1925 C.3       1 <0>         0.0754
     23 H1          1.7260   -0.8994    3.5592 H         1 <0>         0.0937
     24 C18         0.4130   -1.0072    5.2134 C.ar      1 <0>        -0.0346
     25 C19        -0.3051   -1.7725    6.1131 C.ar      1 <0>        -0.1093
     26 C20        -1.1160   -1.1591    7.0496 C.ar      1 <0>        -0.1314
     27 C21        -1.2084    0.2197    7.0867 C.ar      1 <0>        -0.1286
     28 C22        -0.4896    0.9850    6.1875 C.ar      1 <0>        -0.1282
     29 C23         0.3247    0.3717    5.2538 C.ar      1 <0>        -0.0526
     30 C24         3.2922   -1.6441    5.7676 C.2       1 <0>         0.4323
     31 O4          3.1211   -0.3103    5.9267 O.3       1 <0>        -0.6998
     32 N2          4.2728   -2.2638    6.3982 N.2       1 <0>        -0.6661
     33 C25         5.1148   -1.5594    7.2113 C.ar      1 <0>         0.2101
     34 C26         5.6330   -0.3313    6.7906 C.ar      1 <0>        -0.1486
     35 C27         6.4821    0.3743    7.6171 C.ar      1 <0>        -0.1115
     36 C28         6.8216   -0.1309    8.8600 C.ar      1 <0>        -0.1888
     37 C29         6.3129   -1.3464    9.2831 C.ar      1 <0>        -0.1109
     38 C30         5.4578   -2.0605    8.4702 C.ar      1 <0>        -0.1652
     39 N3         -0.0702   -4.6858    2.4721 N.pl3     1 <0>        -0.8378
     40 H2         -1.1125    1.7300    1.5175 H         1 <0>         0.0656
     41 H3         -2.8820    1.6619    1.3373 H         1 <0>         0.0727
     42 H4         -2.1493    1.5957    2.9581 H         1 <0>         0.0680
     43 H5         -2.8828   -0.6551    2.2204 H         1 <0>         0.0611
     44 H6         -1.8459   -0.5208    0.7798 H         1 <0>         0.0601
     45 H7          4.4242   -7.8323    5.4741 H         1 <0>         0.1513
     46 H8          2.9450   -7.3342    2.1576 H         1 <0>         0.1212
     47 H9          2.0667   -9.0945    0.6829 H         1 <0>         0.1192
     48 H10         1.7561  -11.3805    1.5361 H         1 <0>         0.1183
     49 H11         2.3225  -11.9237    3.8673 H         1 <0>         0.1212
     50 H12         3.2127  -10.1844    5.3597 H         1 <0>         0.1251
     51 H13        -0.2330   -2.8497    6.0841 H         1 <0>         0.1026
     52 H14        -1.6777   -1.7570    7.7520 H         1 <0>         0.1096
     53 H15        -1.8425    0.6990    7.8179 H         1 <0>         0.1098
     54 H16        -0.5620    2.0622    6.2163 H         1 <0>         0.1119
     55 H17         0.8892    0.9698    4.5538 H         1 <0>         0.1168
     56 H18         5.3694    0.0639    5.8207 H         1 <0>         0.1139
     57 H19         6.8833    1.3234    7.2935 H         1 <0>         0.0988
     58 H20         7.4873    0.4260    9.5028 H         1 <0>         0.0987
     59 H21         6.5829   -1.7347   10.2540 H         1 <0>         0.1019
     60 H22         5.0577   -3.0066    8.8037 H         1 <0>         0.1070
     61 H23        -0.3244   -4.3880    1.5846 H         1 <0>         0.4176
     62 H24        -0.3741   -5.5464    2.8005 H         1 <0>         0.4080
@<TRIPOS>BOND
     1    1    2 1
     2    1   40 1
     3    1   41 1
     4    1   42 1
     5    2    3 1
     6    2   43 1
     7    2   44 1
     8    3    4 1
     9    4    5 2
    10    4    6 1
    11    6   22 1
    12    6    7 2
    13    7    8 1
    14    7   39 1
    15    8   20 1
    16    8    9 am
    17    9   10 2
    18    9   11 1
    19   11   12 2
    20   11   19 1
    21   12   13 1
    22   12   45 1
    23   13   18 ar
    24   13   14 ar
    25   14   15 ar
    26   14   46 1
    27   15   16 ar
    28   15   47 1
    29   16   17 ar
    30   16   48 1
    31   17   18 ar
    32   17   49 1
    33   18   50 1
    34   19   20 1
    35   20   21 2
    36   21   22 1
    37   21   30 1
    38   22   23 1
    39   22   24 1
    40   24   29 ar
    41   24   25 ar
    42   25   26 ar
    43   25   51 1
    44   26   27 ar
    45   26   52 1
    46   27   28 ar
    47   27   53 1
    48   28   29 ar
    49   28   54 1
    50   29   55 1
    51   30   31 1
    52   30   32 2
    53   32   33 1
    54   33   38 ar
    55   33   34 ar
    56   34   35 ar
    57   34   56 1
    58   35   36 ar
    59   35   57 1
    60   36   37 ar
    61   36   58 1
    62   37   38 ar
    63   37   59 1
    64   38   60 1
    65   39   61 1
    66   39   62 1
@<TRIPOS>MOLECULE
ZINC39731506
   53    58     0     0     0
SMALL
USER_CHARGES

@<TRIPOS>ATOM
      1 C1         -0.0167    1.3780    0.0096 C.ar      1 <0>        -0.1161
      2 C2          1.1709    2.0861    0.0021 C.ar      1 <0>        -0.1052
      3 C3          2.3773    1.4123   -0.0135 C.ar      1 <0>        -0.1118
      4 C4          2.3967    0.0287   -0.0210 C.ar      1 <0>        -0.0205
      5 C5          1.2083   -0.6792   -0.0130 C.ar      1 <0>        -0.0630
      6 C6          0.0021   -0.0041    0.0020 C.ar      1 <0>        -0.0887
      7 C7          1.2286   -2.1860   -0.0218 C.3       1 <0>        -0.0760
      8 S1          1.2540   -2.8003    1.6849 S.3       1 <0>         0.0145
      9 C8          1.2758   -4.5531    1.5067 C.2       1 <0>         0.4327
     10 N1          1.2761   -5.0719    0.2846 N.2       1 <0>        -0.6827
     11 C9          1.2001   -6.3794    0.0850 C.2       1 <0>         0.5260
     12 O1          1.2533   -6.8157   -1.0488 O.2       1 <0>        -0.5003
     13 C10         1.0503   -7.3276    1.2323 C.3       1 <0>        -0.2174
     14 H1          0.0365   -7.7275    1.2121 H         1 <0>         0.1197
     15 C11         2.0239   -8.4976    1.1371 C.3       1 <0>         0.0688
     16 H2          1.7570   -9.1304    0.2907 H         1 <0>         0.1055
     17 C12         1.9306   -9.2955    2.4215 C.2       1 <0>        -0.3846
     18 C13         1.6647   -8.6338    3.6236 C.2       1 <0>         0.3020
     19 C14         1.6091   -9.4110    4.9178 C.3       1 <0>        -0.0840
     20 C15         1.1035  -10.8274    4.6308 C.3       1 <0>        -0.1102
     21 C16         2.0378  -11.4857    3.6118 C.3       1 <0>        -0.1353
     22 C17         2.1065  -10.6354    2.3732 C.2       1 <0>         0.3479
     23 O2          2.3485  -11.2228    1.1871 O.3       1 <0>        -0.6036
     24 N2          1.4313   -7.3354    3.6515 N.2       1 <0>        -0.6064
     25 C18         1.2497   -6.6252    2.5467 C.2       1 <0>         0.4927
     26 N3          1.2971   -5.3098    2.6036 N.2       1 <0>        -0.6127
     27 C19         3.4276   -7.9782    0.9608 C.ar      1 <0>        -0.0493
     28 C20         3.9884   -7.1645    1.9277 C.ar      1 <0>        -0.1132
     29 C21         5.2758   -6.6860    1.7707 C.ar      1 <0>        -0.0975
     30 C22         6.0072   -7.0207    0.6427 C.ar      1 <0>         0.0181
     31 C23         5.4422   -7.8402   -0.3313 C.ar      1 <0>         0.0270
     32 C24         4.1536   -8.3209   -0.1645 C.ar      1 <0>        -0.0723
     33 O3          6.3532   -8.0206   -1.3317 O.3       1 <0>        -0.3105
     34 C25         7.3280   -6.9753   -1.1572 C.3       1 <0>         0.2135
     35 O4          7.2722   -6.6877    0.2526 O.3       1 <0>        -0.3132
     36 Cl1         3.9119   -0.8184   -0.0411 Cl        1 <0>        -0.0552
     37 H3         -0.9592    1.9049    0.0259 H         1 <0>         0.1306
     38 H4          1.1556    3.1659    0.0080 H         1 <0>         0.1315
     39 H5          3.3048    1.9655   -0.0201 H         1 <0>         0.1344
     40 H6         -0.9258   -0.5566    0.0079 H         1 <0>         0.1361
     41 H7          0.3384   -2.5584   -0.5287 H         1 <0>         0.1079
     42 H8          2.1181   -2.5344   -0.5466 H         1 <0>         0.1115
     43 H9          2.6061   -9.4616    5.3556 H         1 <0>         0.0914
     44 H10         0.9301   -8.9153    5.6117 H         1 <0>         0.0899
     45 H11         1.1007  -11.4085    5.5530 H         1 <0>         0.0763
     46 H12         0.0937  -10.7795    4.2233 H         1 <0>         0.0687
     47 H13         3.0346  -11.5822    4.0421 H         1 <0>         0.0892
     48 H14         1.6561  -12.4735    3.3539 H         1 <0>         0.0833
     49 H15         3.4194   -6.9020    2.8073 H         1 <0>         0.1426
     50 H16         5.7114   -6.0506    2.5276 H         1 <0>         0.1299
     51 H17         3.7145   -8.9603   -0.9161 H         1 <0>         0.1342
     52 H18         8.3209   -7.3269   -1.4373 H         1 <0>         0.1261
     53 H19         7.0539   -6.0951   -1.7388 H         1 <0>         0.0781
@<TRIPOS>BOND
     1    1    6 ar
     2    1    2 ar
     3    1   37 1
     4    2    3 ar
     5    2   38 1
     6    3    4 ar
     7    3   39 1
     8    4    5 ar
     9    4   36 1
    10    5    6 ar
    11    5    7 1
    12    6   40 1
    13    7    8 1
    14    7   41 1
    15    7   42 1
    16    8    9 1
    17    9   26 1
    18    9   10 2
    19   10   11 1
    20   11   12 2
    21   11   13 1
    22   13   14 1
    23   13   25 1
    24   13   15 1
    25   15   16 1
    26   15   17 1
    27   15   27 1
    28   17   22 2
    29   17   18 1
    30   18   19 1
    31   18   24 2
    32   19   20 1
    33   19   43 1
    34   19   44 1
    35   20   21 1
    36   20   45 1
    37   20   46 1
    38   21   22 1
    39   21   47 1
    40   21   48 1
    41   22   23 1
    42   24   25 1
    43   25   26 2
    44   27   32 ar
    45   27   28 ar
    46   28   29 ar
    47   28   49 1
    48   29   30 ar
    49   29   50 1
    50   30   35 1
    51   30   31 ar
    52   31   32 ar
    53   31   33 1
    54   32   51 1
    55   33   34 1
    56   34   35 1
    57   34   52 1
    58   34   53 1
@<TRIPOS>MOLECULE
ZINC08744296
   57    61     0     0     0
SMALL
USER_CHARGES

@<TRIPOS>ATOM
      1 C1          0.4312    1.1768    2.4549 C.ar      1 <0>        -0.1373
      2 C2          1.5020    1.9402    2.0143 C.ar      1 <0>        -0.1160
      3 C3          2.4356    1.4082    1.1515 C.ar      1 <0>        -0.1176
      4 C4          2.3082    0.0934    0.7147 C.ar      1 <0>         0.0791
      5 C5          1.2239   -0.6766    1.1621 C.ar      1 <0>        -0.0576
      6 C6          0.2881   -0.1277    2.0332 C.ar      1 <0>        -0.0835
      7 C7          1.3791   -2.0003    0.5249 C.2       1 <0>        -0.2153
      8 C8          2.5280   -1.9233   -0.2444 C.2       1 <0>         0.2021
      9 N1          3.0656   -0.6959   -0.1282 N.pl3     1 <0>        -0.4640
     10 C9          4.2886   -0.2561   -0.8042 C.3       1 <0>         0.1144
     11 C10         5.4834   -0.4374    0.1342 C.3       1 <0>        -0.1416
     12 C11         6.7607    0.0220   -0.5717 C.3       1 <0>         0.0650
     13 O1          7.8766   -0.1474    0.3047 O.3       1 <0>        -0.2969
     14 C12         9.0965    0.2159   -0.1721 C.ar      1 <0>         0.1437
     15 C13         9.2161    0.7301   -1.4547 C.ar      1 <0>        -0.2007
     16 C14        10.4570    1.0992   -1.9371 C.ar      1 <0>        -0.0757
     17 C15        11.5798    0.9560   -1.1429 C.ar      1 <0>        -0.1497
     18 C16        11.4643    0.4433    0.1358 C.ar      1 <0>        -0.0731
     19 C17        10.2241    0.0782    0.6257 C.ar      1 <0>        -0.0714
     20 Cl1        10.0782   -0.5588    2.2340 Cl        1 <0>        -0.0521
     21 C18         0.5299   -3.1157    0.6705 C.2       1 <0>         0.1169
     22 C19         1.0713   -4.3862    0.8175 C.2       1 <0>        -0.3131
     23 C20         2.5146   -4.5875    1.0548 C.2       1 <0>         0.5446
     24 N2          2.9706   -5.8440    1.1881 N.2       1 <0>        -0.6687
     25 C21         2.1758   -6.8818    1.1136 C.2       1 <0>         0.6369
     26 O2          2.7152   -8.1081    1.2586 O.3       1 <0>        -0.6496
     27 N3          0.8359   -6.7910    0.8985 N.am      1 <0>        -0.5372
     28 C22         0.2316   -5.5929    0.7500 C.2       1 <0>         0.5687
     29 O3         -0.9686   -5.5135    0.5620 O.2       1 <0>        -0.5284
     30 C23         0.0677   -7.9623    0.8352 C.ar      1 <0>         0.1567
     31 C24        -0.3870   -8.5591    2.0032 C.ar      1 <0>        -0.0713
     32 C25        -1.1440   -9.7125    1.9388 C.ar      1 <0>        -0.1448
     33 C26        -1.4494  -10.2737    0.7102 C.ar      1 <0>         0.0900
     34 C27        -0.9966   -9.6797   -0.4560 C.ar      1 <0>        -0.1454
     35 C28        -0.2439   -8.5233   -0.3958 C.ar      1 <0>        -0.0753
     36 F1         -2.1895  -11.4022    0.6492 F         1 <0>        -0.1442
     37 O4          3.2744   -3.6361    1.1276 O.2       1 <0>        -0.5427
     38 H1         -0.2909    1.6047    3.1346 H         1 <0>         0.1204
     39 H2          1.6050    2.9614    2.3503 H         1 <0>         0.1212
     40 H3          3.2654    2.0116    0.8143 H         1 <0>         0.1150
     41 H4         -0.5461   -0.7210    2.3775 H         1 <0>         0.1216
     42 H5          2.9304   -2.7255   -0.8452 H         1 <0>         0.1759
     43 H6          4.4403   -0.8513   -1.7047 H         1 <0>         0.0961
     44 H7          4.1958    0.7956   -1.0752 H         1 <0>         0.0892
     45 H8          5.3318    0.1578    1.0347 H         1 <0>         0.0828
     46 H9          5.5762   -1.4891    0.4052 H         1 <0>         0.0967
     47 H10         6.9123   -0.5732   -1.4722 H         1 <0>         0.0683
     48 H11         6.6679    1.0736   -0.8427 H         1 <0>         0.0650
     49 H12         8.3398    0.8417   -2.0761 H         1 <0>         0.1364
     50 H13        10.5502    1.4996   -2.9358 H         1 <0>         0.1307
     51 H14        12.5488    1.2449   -1.5223 H         1 <0>         0.1324
     52 H15        12.3429    0.3318    0.7539 H         1 <0>         0.1390
     53 H16        -0.5419   -2.9824    0.6678 H         1 <0>         0.1293
     54 H17        -0.1487   -8.1220    2.9616 H         1 <0>         0.1315
     55 H18        -1.4976  -10.1774    2.8473 H         1 <0>         0.1368
     56 H19        -1.2355  -10.1190   -1.4133 H         1 <0>         0.1365
     57 H20         0.1052   -8.0579   -1.3057 H         1 <0>         0.1304
@<TRIPOS>BOND
     1    1    6 ar
     2    1    2 ar
     3    1   38 1
     4    2    3 ar
     5    2   39 1
     6    3    4 ar
     7    3   40 1
     8    4    9 1
     9    4    5 ar
    10    5    6 ar
    11    5    7 1
    12    6   41 1
    13    7    8 2
    14    7   21 1
    15    8    9 1
    16    8   42 1
    17    9   10 1
    18   10   11 1
    19   10   43 1
    20   10   44 1
    21   11   12 1
    22   11   45 1
    23   11   46 1
    24   12   13 1
    25   12   47 1
    26   12   48 1
    27   13   14 1
    28   14   19 ar
    29   14   15 ar
    30   15   16 ar
    31   15   49 1
    32   16   17 ar
    33   16   50 1
    34   17   18 ar
    35   17   51 1
    36   18   19 ar
    37   18   52 1
    38   19   20 1
    39   21   22 2
    40   21   53 1
    41   22   28 1
    42   22   23 1
    43   23   24 1
    44   23   37 2
    45   24   25 2
    46   25   26 1
    47   25   27 1
    48   27   28 am
    49   27   30 1
    50   28   29 2
    51   30   35 ar
    52   30   31 ar
    53   31   32 ar
    54   31   54 1
    55   32   33 ar
    56   32   55 1
    57   33   34 ar
    58   33   36 1
    59   34   35 ar
    60   34   56 1
    61   35   57 1
@<TRIPOS>MOLECULE
ZINC06146967
   40    42     0     0     0
SMALL
USER_CHARGES
N-(4-bromophenyl)-2-[(4-bromophenyl)sulfonylamino]benzamide
@<TRIPOS>ATOM
      1 C1          4.3139   -1.7855   -4.1593 C.ar      1 <0>        -0.2111
      2 C2          4.5877   -2.1555   -2.8518 C.ar      1 <0>        -0.0600
      3 C3          3.5665   -2.5304   -2.0034 C.ar      1 <0>        -0.2502
      4 C4          2.2530   -2.5398   -2.4566 C.ar      1 <0>         0.2950
      5 C5          1.9731   -2.1713   -3.7817 C.ar      1 <0>        -0.2027
      6 C6          3.0182   -1.7881   -4.6267 C.ar      1 <0>        -0.0567
      7 C7          0.5849   -2.1831   -4.2774 C.2       1 <0>         0.5596
      8 O1         -0.3222   -2.5128   -3.5375 O.2       1 <0>        -0.4724
      9 N1          0.3209   -1.8284   -5.5506 N.am      1 <0>        -0.7012
     10 C8         -1.0034   -1.7464   -5.9935 C.ar      1 <0>         0.1912
     11 C9         -1.9537   -2.6390   -5.5149 C.ar      1 <0>        -0.1224
     12 C10        -3.2614   -2.5527   -5.9503 C.ar      1 <0>        -0.0692
     13 C11        -3.6231   -1.5848   -6.8706 C.ar      1 <0>        -0.1198
     14 C12        -2.6773   -0.6975   -7.3531 C.ar      1 <0>        -0.0722
     15 C13        -1.3693   -0.7759   -6.9172 C.ar      1 <0>        -0.1551
     16 Br1        -5.4133   -1.4739   -7.4694 Br        1 <0>        -0.0674
     17 N2          1.2232   -2.9172   -1.6047 N.2       1 <0>        -1.0109
     18 S1          1.2906   -2.5213    0.0019 S.o2      1 <0>         2.5834
     19 O2          2.5382   -2.9993    0.4860 O.2       1 <0>        -1.0363
     20 O3          0.0502   -2.9183    0.5704 O.2       1 <0>        -0.9853
     21 C14         1.3512   -0.7633    0.1031 C.ar      1 <0>        -0.6388
     22 C15         0.1790   -0.0349    0.1834 C.ar      1 <0>        -0.0171
     23 C16         0.2261    1.3441    0.2633 C.ar      1 <0>        -0.1183
     24 C17         1.4465    1.9955    0.2624 C.ar      1 <0>        -0.0568
     25 C18         2.6191    1.2662    0.1821 C.ar      1 <0>        -0.1176
     26 C19         2.5711   -0.1128    0.1027 C.ar      1 <0>        -0.0221
     27 Br2         1.5116    3.8822    0.3717 Br        1 <0>        -0.0605
     28 H1          5.1209   -1.4941   -4.8152 H         1 <0>         0.1081
     29 H2          5.6070   -2.1505   -2.4951 H         1 <0>         0.1086
     30 H3          3.7882   -2.8173   -0.9861 H         1 <0>         0.1523
     31 H4          2.8107   -1.4989   -5.6463 H         1 <0>         0.1066
     32 H5          1.1468   -1.6034   -6.2414 H         1 <0>         0.4241
     33 H6         -1.6711   -3.3973   -4.7996 H         1 <0>         0.1517
     34 H7         -4.0017   -3.2437   -5.5751 H         1 <0>         0.1314
     35 H8         -2.9625    0.0572   -8.0711 H         1 <0>         0.1297
     36 H9         -0.6316   -0.0828   -7.2939 H         1 <0>         0.1305
     37 H10        -0.7737   -0.5436    0.1841 H         1 <0>         0.1433
     38 H11        -0.6898    1.9133    0.3219 H         1 <0>         0.1331
     39 H12         3.5721    1.7743    0.1821 H         1 <0>         0.1331
     40 H13         3.4866   -0.6823    0.0407 H         1 <0>         0.1425
@<TRIPOS>BOND
     1    1    6 ar
     2    1    2 ar
     3    1   28 1
     4    2    3 ar
     5    2   29 1
     6    3    4 ar
     7    3   30 1
     8    4    5 ar
     9    4   17 1
    10    5    6 ar
    11    5    7 1
    12    6   31 1
    13    7    8 2
    14    7    9 am
    15    9   10 1
    16    9   32 1
    17   10   15 ar
    18   10   11 ar
    19   11   12 ar
    20   11   33 1
    21   12   13 ar
    22   12   34 1
    23   13   14 ar
    24   13   16 1
    25   14   15 ar
    26   14   35 1
    27   15   36 1
    28   17   18 1
    29   18   19 2
    30   18   20 2
    31   18   21 1
    32   21   26 ar
    33   21   22 ar
    34   22   23 ar
    35   22   37 1
    36   23   24 ar
    37   23   38 1
    38   24   25 ar
    39   24   27 1
    40   25   26 ar
    41   25   39 1
    42   26   40 1
@<TRIPOS>MOLECULE
ZINC35566523
   61    65     0     0     0
SMALL
USER_CHARGES

@<TRIPOS>ATOM
      1 C1         -0.3025    1.4777   -0.1774 C.3       1 <0>        -0.1060
      2 C2         -0.2402   -0.0279   -0.1565 C.ar      1 <0>        -0.0831
      3 C3         -0.2409   -0.7459   -1.3439 C.ar      1 <0>        -0.1109
      4 C4         -0.1850   -2.1149   -1.3530 C.ar      1 <0>        -0.0372
      5 C5         -0.1249   -2.8437   -0.1423 C.ar      1 <0>         0.1157
      6 C6         -0.1261   -2.0793    1.0469 C.ar      1 <0>        -0.1573
      7 C7         -0.1761   -0.7076    1.0458 C.ar      1 <0>        -0.0645
      8 S1         -0.0429   -3.3334    2.3027 S.3       1 <0>         0.0041
      9 C8         -0.0128   -4.7457    1.2078 C.2       1 <0>         0.4244
     10 N1         -0.0659   -4.1825    0.0229 N.2       1 <0>        -0.5367
     11 N2          0.0504   -6.0905    1.5275 N.am      1 <0>        -0.5077
     12 C9          0.1014   -6.6552    2.8812 C.3       1 <0>         0.2721
     13 H1         -0.7938   -6.3771    3.4374 H         1 <0>         0.0801
     14 C10         0.1612   -8.1551    2.7089 C.2       1 <0>        -0.4893
     15 C11         0.1447   -8.3959    1.3776 C.2       1 <0>         0.2753
     16 C12         0.0701   -7.1124    0.6526 C.2       1 <0>         0.5124
     17 O1          0.0346   -6.9957   -0.5564 O.2       1 <0>        -0.4664
     18 O2          0.1852   -9.6204    0.8017 O.3       1 <0>        -0.6350
     19 C13         0.2258   -9.1573    3.7790 C.2       1 <0>         0.5551
     20 O3          1.2205   -9.8489    3.9067 O.2       1 <0>        -0.4506
     21 C14        -0.9072   -9.3262    4.6948 C.2       1 <0>        -0.2551
     22 C15        -1.0283  -10.1336    5.8198 C.2       1 <0>         0.1157
     23 N3         -2.1739  -10.0782    6.4514 N.2       1 <0>        -0.5243
     24 C16        -3.1516   -9.3021    6.0419 C.2       1 <0>         0.0314
     25 S2         -2.5137   -8.5461    4.6803 S.3       1 <0>         0.1660
     26 C17        -4.5184   -9.1252    6.6514 C.3       1 <0>        -0.0621
     27 C18         0.0955  -11.0229    6.2861 C.3       1 <0>        -0.0843
     28 C19         1.3313   -6.1653    3.6012 C.ar      1 <0>        -0.1429
     29 C20         2.5535   -6.1610    2.9543 C.ar      1 <0>        -0.0364
     30 C21         3.6827   -5.7128    3.6111 C.ar      1 <0>        -0.1918
     31 C22         3.5896   -5.2659    4.9231 C.ar      1 <0>         0.2132
     32 C23         2.3603   -5.2715    5.5699 C.ar      1 <0>        -0.1948
     33 C24         1.2342   -5.7158    4.9053 C.ar      1 <0>        -0.0570
     34 N4          4.7297   -4.8123    5.5905 N.pl3     1 <0>        -0.6415
     35 C25         6.0254   -4.8075    4.9069 C.3       1 <0>         0.0955
     36 C26         4.6297   -4.3413    6.9741 C.3       1 <0>         0.0969
     37 C27        -0.1880   -2.8522   -2.6673 C.3       1 <0>        -0.1109
     38 H2          0.7088    1.8827   -0.2134 H         1 <0>         0.0700
     39 H3         -0.8570    1.8062   -1.0565 H         1 <0>         0.0673
     40 H4         -0.8044    1.8331    0.7225 H         1 <0>         0.0661
     41 H5         -0.2868   -0.2135   -2.2825 H         1 <0>         0.1279
     42 H6         -0.1699   -0.1629    1.9784 H         1 <0>         0.1273
     43 H7         -4.4879   -8.3191    7.3844 H         1 <0>         0.0867
     44 H8         -5.2359   -8.8778    5.8690 H         1 <0>         0.0842
     45 H9         -4.8202  -10.0508    7.1415 H         1 <0>         0.0884
     46 H10         0.7270  -10.4743    6.9849 H         1 <0>         0.0741
     47 H11        -0.3180  -11.9009    6.7823 H         1 <0>         0.0691
     48 H12         0.6902  -11.3368    5.4282 H         1 <0>         0.0945
     49 H13         2.6252   -6.5090    1.9344 H         1 <0>         0.1142
     50 H14         4.6370   -5.7101    3.1055 H         1 <0>         0.1190
     51 H15         2.2846   -4.9250    6.5900 H         1 <0>         0.1196
     52 H16         0.2773   -5.7163    5.4062 H         1 <0>         0.1184
     53 H17         6.1651   -3.8529    4.3997 H         1 <0>         0.0444
     54 H18         6.8219   -4.9510    5.6371 H         1 <0>         0.0623
     55 H19         6.0533   -5.6151    4.1754 H         1 <0>         0.0690
     56 H20         4.7866   -5.1779    7.6550 H         1 <0>         0.0448
     57 H21         5.3879   -3.5792    7.1542 H         1 <0>         0.0615
     58 H22         3.6402   -3.9163    7.1427 H         1 <0>         0.0677
     59 H23         0.8377   -2.9879   -3.0102 H         1 <0>         0.0702
     60 H24        -0.6592   -3.8264   -2.5363 H         1 <0>         0.0785
     61 H25        -0.7448   -2.2757   -3.4060 H         1 <0>         0.0629
@<TRIPOS>BOND
     1    1    2 1
     2    1   38 1
     3    1   39 1
     4    1   40 1
     5    2    7 ar
     6    2    3 ar
     7    3    4 ar
     8    3   41 1
     9    4    5 ar
    10    4   37 1
    11    5   10 1
    12    5    6 ar
    13    6    7 ar
    14    6    8 1
    15    7   42 1
    16    8    9 1
    17    9   10 2
    18    9   11 1
    19   11   16 am
    20   11   12 1
    21   12   13 1
    22   12   14 1
    23   12   28 1
    24   14   15 2
    25   14   19 1
    26   15   16 1
    27   15   18 1
    28   16   17 2
    29   19   20 2
    30   19   21 1
    31   21   25 1
    32   21   22 2
    33   22   23 1
    34   22   27 1
    35   23   24 2
    36   24   25 1
    37   24   26 1
    38   26   43 1
    39   26   44 1
    40   26   45 1
    41   27   46 1
    42   27   47 1
    43   27   48 1
    44   28   33 ar
    45   28   29 ar
    46   29   30 ar
    47   29   49 1
    48   30   31 ar
    49   30   50 1
    50   31   32 ar
    51   31   34 1
    52   32   33 ar
    53   32   51 1
    54   33   52 1
    55   34   35 1
    56   34   36 1
    57   35   53 1
    58   35   54 1
    59   35   55 1
    60   36   56 1
    61   36   57 1
    62   36   58 1
    63   37   59 1
    64   37   60 1
    65   37   61 1
@<TRIPOS>MOLECULE
ZINC39733517
   65    69     0     0     0
SMALL
USER_CHARGES

@<TRIPOS>ATOM
      1 C1         -0.0187    1.5258    0.0104 C.3       1 <0>        -0.1535
      2 C2          0.0021   -0.0041    0.0020 C.3       1 <0>         0.0577
      3 O1          0.6932   -0.4774    1.1597 O.3       1 <0>        -0.3537
      4 C3          0.8006   -1.8076    1.3039 C.2       1 <0>         0.4654
      5 O2          0.3237   -2.5457    0.4746 O.2       1 <0>        -0.4783
      6 C4          1.5162   -2.3806    2.5000 C.3       1 <0>        -0.0587
      7 H1          2.5435   -2.0164    2.5078 H         1 <0>         0.1400
      8 C5          0.8025   -1.9079    3.7902 C.3       1 <0>         0.1760
      9 H2          1.3061   -1.0493    4.2343 H         1 <0>         0.1386
     10 S1          1.0297   -3.4269    4.8089 S.3       1 <0>        -0.0686
     11 C6          1.2936   -4.5771    3.4822 C.2       1 <0>        -0.0981
     12 C7          1.5279   -3.8883    2.3926 C.2       1 <0>        -0.1464
     13 C8          1.8505   -4.5721    1.0580 C.3       1 <0>        -0.0498
     14 C9          3.1619   -5.3364    1.2305 C.3       1 <0>        -0.1162
     15 C10         2.9510   -6.6770    1.8915 C.3       1 <0>        -0.1197
     16 C11         2.6287   -6.6392    3.3683 C.3       1 <0>        -0.1113
     17 C12         1.2193   -6.0875    3.5904 C.3       1 <0>        -0.0463
     18 N1         -0.6151   -1.6279    3.5488 N.am      1 <0>        -0.7227
     19 C13        -1.5469   -2.0733    4.4147 C.2       1 <0>         0.5357
     20 O3         -1.2118   -2.7058    5.3938 O.2       1 <0>        -0.4728
     21 C14        -3.0051   -1.7853    4.1664 C.3       1 <0>        -0.1116
     22 H3         -3.1084   -0.8011    3.7095 H         1 <0>         0.1136
     23 C15        -3.5819   -2.8466    3.2273 C.3       1 <0>        -0.1398
     24 S2         -3.9047   -1.8182    5.7413 S.3       1 <0>         0.0508
     25 C16        -5.5397   -1.3241    5.3087 C.2       1 <0>         0.0661
     26 N2         -5.9690   -1.0174    4.1070 N.2       1 <0>        -0.2483
     27 N3         -7.2154   -0.7018    4.1448 N.2       1 <0>        -0.3392
     28 C17        -7.6613   -0.7889    5.3841 C.2       1 <0>         0.4437
     29 N4         -6.5999   -1.1941    6.1603 N.pl3     1 <0>        -0.4397
     30 C18        -6.7522   -1.3823    7.5125 C.2       1 <0>         0.1255
     31 C19        -7.9559   -1.1578    8.0659 C.2       1 <0>        -0.1738
     32 C20        -9.0315   -0.7484    7.2375 C.2       1 <0>         0.4572
     33 O4        -10.2504   -0.5283    7.7852 O.3       1 <0>        -0.6690
     34 N5         -8.8596   -0.5728    5.9465 N.2       1 <0>        -0.5757
     35 C21        -8.2208   -1.3127    9.5395 C.3       1 <0>        -0.0485
     36 C22        -7.1306   -2.1559   10.1980 C.3       1 <0>        -0.1232
     37 C23        -5.7676   -1.5790    9.7959 C.3       1 <0>        -0.1103
     38 C24        -5.5579   -1.8400    8.3055 C.3       1 <0>        -0.0819
     39 H4          1.0039    1.9031    0.0027 H         1 <0>         0.0665
     40 H5         -0.5459    1.8868   -0.8726 H         1 <0>         0.0818
     41 H6         -0.5289    1.8773    0.9072 H         1 <0>         0.0698
     42 H7         -1.0205   -0.3814    0.0098 H         1 <0>         0.0719
     43 H8          0.5123   -0.3556   -0.8948 H         1 <0>         0.0694
     44 H9          1.0511   -5.2650    0.7955 H         1 <0>         0.0763
     45 H10         1.9609   -3.8212    0.2757 H         1 <0>         0.0756
     46 H11         3.6136   -5.4912    0.2507 H         1 <0>         0.0639
     47 H12         3.8408   -4.7423    1.8424 H         1 <0>         0.0615
     48 H13         2.1353   -7.1857    1.3776 H         1 <0>         0.0586
     49 H14         3.8552   -7.2702    1.7551 H         1 <0>         0.0578
     50 H15         2.6906   -7.6479    3.7767 H         1 <0>         0.0700
     51 H16         3.3508   -6.0019    3.8786 H         1 <0>         0.0664
     52 H17         0.8657   -6.3704    4.5819 H         1 <0>         0.0803
     53 H18         0.5442   -6.4801    2.8301 H         1 <0>         0.0843
     54 H19        -0.8830   -1.1220    2.7658 H         1 <0>         0.4041
     55 H20        -4.6366   -2.6383    3.0477 H         1 <0>         0.0904
     56 H21        -3.0414   -2.8268    2.2810 H         1 <0>         0.0606
     57 H22        -3.4786   -3.8308    3.6842 H         1 <0>         0.0696
     58 H23        -8.2437   -0.3277   10.0057 H         1 <0>         0.0733
     59 H24        -9.1859   -1.7990    9.6816 H         1 <0>         0.0844
     60 H25        -7.2407   -2.1174   11.2817 H         1 <0>         0.0697
     61 H26        -7.2079   -3.1881    9.8566 H         1 <0>         0.0646
     62 H27        -5.7519   -0.5060    9.9869 H         1 <0>         0.0685
     63 H28        -4.9788   -2.0664   10.3689 H         1 <0>         0.0738
     64 H29        -5.4085   -2.9078    8.1455 H         1 <0>         0.0882
     65 H30        -4.6738   -1.2997    7.9672 H         1 <0>         0.0855
@<TRIPOS>BOND
     1    1    2 1
     2    1   39 1
     3    1   40 1
     4    1   41 1
     5    2    3 1
     6    2   42 1
     7    2   43 1
     8    3    4 1
     9    4    5 2
    10    4    6 1
    11    6    7 1
    12    6   12 1
    13    6    8 1
    14    8    9 1
    15    8   10 1
    16    8   18 1
    17   10   11 1
    18   11   17 1
    19   11   12 2
    20   12   13 1
    21   13   14 1
    22   13   44 1
    23   13   45 1
    24   14   15 1
    25   14   46 1
    26   14   47 1
    27   15   16 1
    28   15   48 1
    29   15   49 1
    30   16   17 1
    31   16   50 1
    32   16   51 1
    33   17   52 1
    34   17   53 1
    35   18   19 am
    36   18   54 1
    37   19   20 2
    38   19   21 1
    39   21   22 1
    40   21   23 1
    41   21   24 1
    42   23   55 1
    43   23   56 1
    44   23   57 1
    45   24   25 1
    46   25   29 1
    47   25   26 2
    48   26   27 1
    49   27   28 2
    50   28   34 1
    51   28   29 1
    52   29   30 1
    53   30   38 1
    54   30   31 2
    55   31   32 1
    56   31   35 1
    57   32   33 1
    58   32   34 2
    59   35   36 1
    60   35   58 1
    61   35   59 1
    62   36   37 1
    63   36   60 1
    64   36   61 1
    65   37   38 1
    66   37   62 1
    67   37   63 1
    68   38   64 1
    69   38   65 1
@<TRIPOS>MOLECULE
ZINC44390440
   65    69     0     0     0
SMALL
USER_CHARGES

@<TRIPOS>ATOM
      1 C1         -0.1061   -3.9482    4.1160 C.3       1 <0>         0.0234
      2 O1         -0.0595   -3.5798    2.7361 O.3       1 <0>        -0.3013
      3 C2          0.5889   -2.4251    2.4269 C.ar      1 <0>         0.1701
      4 C3          1.1720   -1.6674    3.4304 C.ar      1 <0>        -0.2350
      5 C4          1.8335   -0.4885    3.1152 C.ar      1 <0>         0.2512
      6 C5          1.9121   -0.0676    1.7948 C.ar      1 <0>        -0.2624
      7 C6          1.3296   -0.8240    0.7899 C.ar      1 <0>         0.1697
      8 C7          0.6720   -2.0074    1.1040 C.ar      1 <0>         0.0066
      9 O2          0.1043   -2.7539    0.1169 O.3       1 <0>        -0.3104
     10 C8         -1.2541   -2.4623   -0.2173 C.3       1 <0>         0.0342
     11 O3          1.4064   -0.4111   -0.5035 O.3       1 <0>        -0.3011
     12 C9          2.1024    0.8115   -0.7541 C.3       1 <0>         0.0232
     13 N1          2.4219    0.2772    4.1304 N.am      1 <0>        -0.6777
     14 C10         2.9521   -0.3295    5.2108 C.2       1 <0>         0.7143
     15 O4          3.0071   -1.5432    5.2606 O.2       1 <0>        -0.5518
     16 N2          3.4213    0.4090    6.2359 N.am      1 <0>        -0.6409
     17 C11         3.9697   -0.2185    7.3534 C.2       1 <0>         0.3553
     18 C12         4.0987   -1.5579    7.5379 C.2       1 <0>        -0.2696
     19 C13         4.7004   -1.7637    8.7946 C.2       1 <0>         0.1138
     20 N3          4.9231   -0.5878    9.3418 N.2       1 <0>        -0.2353
     21 N4          4.4787    0.4017    8.4558 N.pl3     1 <0>        -0.3065
     22 C14         4.5430    1.7777    8.6652 C.ar      1 <0>         0.5692
     23 N5          4.0734    2.5951    7.7361 N.ar      1 <0>        -0.6461
     24 C15         4.1247    3.9087    7.9083 C.ar      1 <0>         0.4659
     25 O5          3.6449    4.7440    6.9552 O.3       1 <0>        -0.6844
     26 C16         4.6792    4.4226    9.0851 C.ar      1 <0>        -0.2895
     27 C17         5.1514    3.5411   10.0277 C.ar      1 <0>         0.1912
     28 N6          5.0664    2.2352    9.7888 N.ar      1 <0>        -0.5866
     29 C18         5.7509    3.9930   11.3317 C.3       1 <0>        -0.0601
     30 C19         6.1517    5.4655   11.2542 C.3       1 <0>        -0.1144
     31 C20         4.9543    6.2691   10.7336 C.3       1 <0>        -0.1193
     32 C21         4.7363    5.9145    9.2631 C.3       1 <0>        -0.0361
     33 C22         5.0269   -3.0797    9.3976 C.ar      1 <0>        -0.0031
     34 C23         4.7423   -4.2555    8.7062 C.ar      1 <0>        -0.0925
     35 C24         5.0480   -5.4768    9.2718 C.ar      1 <0>        -0.1239
     36 C25         5.6359   -5.5349   10.5226 C.ar      1 <0>        -0.1183
     37 C26         5.9207   -4.3707   11.2133 C.ar      1 <0>        -0.1244
     38 C27         5.6244   -3.1439   10.6547 C.ar      1 <0>        -0.0911
     39 H1         -0.6120   -3.1672    4.6837 H         1 <0>         0.0560
     40 H2         -0.6509   -4.8862    4.2234 H         1 <0>         0.1009
     41 H3          0.9089   -4.0722    4.4934 H         1 <0>         0.0654
     42 H4          1.1114   -1.9942    4.4580 H         1 <0>         0.1535
     43 H5          2.4270    0.8498    1.5505 H         1 <0>         0.1400
     44 H6         -1.8838   -2.6094    0.6601 H         1 <0>         0.0428
     45 H7         -1.3320   -1.4276   -0.5511 H         1 <0>         0.0424
     46 H8         -1.5826   -3.1274   -1.0160 H         1 <0>         0.0888
     47 H9          1.6147    1.6242   -0.2157 H         1 <0>         0.0582
     48 H10         3.1340    0.7184   -0.4146 H         1 <0>         0.0590
     49 H11         2.0895    1.0245   -1.8230 H         1 <0>         0.1016
     50 H12         2.4476    1.2440    4.0556 H         1 <0>         0.4169
     51 H13         3.3774    1.3772    6.1961 H         1 <0>         0.4349
     52 H14         3.7938   -2.3279    6.8447 H         1 <0>         0.1813
     53 H15         5.0202    3.8600   12.1295 H         1 <0>         0.0765
     54 H16         6.6326    3.3907   11.5508 H         1 <0>         0.0780
     55 H17         6.4287    5.8223   12.2462 H         1 <0>         0.0643
     56 H18         6.9941    5.5803   10.5722 H         1 <0>         0.0632
     57 H19         4.0639    6.0134   11.3080 H         1 <0>         0.0596
     58 H20         5.1604    7.3353   10.8267 H         1 <0>         0.0601
     59 H21         5.5573    6.3170    8.6698 H         1 <0>         0.0564
     60 H22         3.7993    6.3544    8.9215 H         1 <0>         0.0671
     61 H23         4.2829   -4.2114    7.7298 H         1 <0>         0.1300
     62 H24         4.8275   -6.3888    8.7370 H         1 <0>         0.1235
     63 H25         5.8732   -6.4926   10.9616 H         1 <0>         0.1196
     64 H26         6.3797   -4.4218   12.1895 H         1 <0>         0.1226
     65 H27         5.8512   -2.2354   11.1929 H         1 <0>         0.1314
@<TRIPOS>BOND
     1    1    2 1
     2    1   39 1
     3    1   40 1
     4    1   41 1
     5    2    3 1
     6    3    8 ar
     7    3    4 ar
     8    4    5 ar
     9    4   42 1
    10    5    6 ar
    11    5   13 1
    12    6    7 ar
    13    6   43 1
    14    7    8 ar
    15    7   11 1
    16    8    9 1
    17    9   10 1
    18   10   44 1
    19   10   45 1
    20   10   46 1
    21   11   12 1
    22   12   47 1
    23   12   48 1
    24   12   49 1
    25   13   14 am
    26   13   50 1
    27   14   15 2
    28   14   16 am
    29   16   17 1
    30   16   51 1
    31   17   21 1
    32   17   18 2
    33   18   19 1
    34   18   52 1
    35   19   20 2
    36   19   33 1
    37   20   21 1
    38   21   22 1
    39   22   28 ar
    40   22   23 ar
    41   23   24 ar
    42   24   25 1
    43   24   26 ar
    44   26   32 1
    45   26   27 ar
    46   27   28 ar
    47   27   29 1
    48   29   30 1
    49   29   53 1
    50   29   54 1
    51   30   31 1
    52   30   55 1
    53   30   56 1
    54   31   32 1
    55   31   57 1
    56   31   58 1
    57   32   59 1
    58   32   60 1
    59   33   38 ar
    60   33   34 ar
    61   34   35 ar
    62   34   61 1
    63   35   36 ar
    64   35   62 1
    65   36   37 ar
    66   36   63 1
    67   37   38 ar
    68   37   64 1
    69   38   65 1
@<TRIPOS>MOLECULE
ZINC59293322
   54    58     0     0     0
SMALL
USER_CHARGES

@<TRIPOS>ATOM
      1 C1         -0.0085    1.3908    0.2402 C.ar      1 <0>        -0.1061
      2 C2          1.0979    2.0432    0.7563 C.ar      1 <0>        -0.1261
      3 C3          2.3001    1.3795    0.8770 C.ar      1 <0>        -0.0928
      4 C4          2.4000    0.0424    0.4760 C.ar      1 <0>        -0.0769
      5 C5          1.2767   -0.6098   -0.0448 C.ar      1 <0>        -0.0929
      6 C6          0.0819    0.0684   -0.1588 C.ar      1 <0>        -0.1118
      7 C7          3.6779   -0.6728    0.6007 C.2       1 <0>         0.0322
      8 C8          3.7071   -2.0276    0.5286 C.2       1 <0>        -0.2483
      9 C9          4.8615   -2.9340    0.4789 C.2       1 <0>         0.5529
     10 O1          5.9972   -2.4979    0.5010 O.2       1 <0>        -0.4972
     11 N1          4.6330   -4.2606    0.4087 N.am      1 <0>        -0.4959
     12 C10         3.3177   -4.6841    0.3878 C.2       1 <0>         0.0433
     13 C11         2.9332   -5.9832    0.3189 C.2       1 <0>        -0.0156
     14 C12         4.0088   -7.0496    0.2603 C.3       1 <0>         0.0818
     15 H1          3.8695   -7.7213    1.1074 H         1 <0>         0.0975
     16 C13         5.4375   -6.5453    0.2853 C.2       1 <0>        -0.2112
     17 C14         5.6564   -5.2137    0.3562 C.2       1 <0>         0.4673
     18 N2          6.9567   -4.7707    0.3776 N.pl3     1 <0>        -0.8579
     19 C15         6.5356   -7.4630    0.2351 C.1       1 <0>         0.2919
     20 N3          7.4067   -8.1911    0.1953 N.1       1 <0>        -0.4478
     21 C16         3.8157   -7.8448   -1.0051 C.ar      1 <0>        -0.0434
     22 C17         3.8829   -7.2154   -2.2340 C.ar      1 <0>        -0.1060
     23 C18         3.7058   -7.9449   -3.3948 C.ar      1 <0>        -0.1261
     24 C19         3.4620   -9.3039   -3.3267 C.ar      1 <0>        -0.1283
     25 C20         3.3957   -9.9335   -2.0978 C.ar      1 <0>        -0.1225
     26 C21         3.5771   -9.2047   -0.9372 C.ar      1 <0>        -0.0785
     27 C22         1.5702   -6.3320    0.3026 C.2       1 <0>         0.4391
     28 O2          1.2054   -7.6342    0.2334 O.3       1 <0>        -0.6946
     29 N4          0.6470   -5.3896    0.3547 N.2       1 <0>        -0.6674
     30 C23        -0.6767   -5.7284    0.3389 C.ar      1 <0>         0.2196
     31 C24        -1.1451   -6.6875   -0.5633 C.ar      1 <0>        -0.1391
     32 C25        -2.4822   -7.0250   -0.5735 C.ar      1 <0>        -0.0967
     33 C26        -3.3602   -6.4156    0.3072 C.ar      1 <0>        -0.0956
     34 C27        -2.9029   -5.4641    1.2035 C.ar      1 <0>        -0.0959
     35 C28        -1.5673   -5.1216    1.2288 C.ar      1 <0>        -0.1565
     36 Cl1        -5.0419   -6.8460    0.2871 Cl        1 <0>        -0.1137
     37 S1          2.3524   -3.1892    0.4765 S.3       1 <0>         0.1714
     38 H2         -0.9486    1.9152    0.1523 H         1 <0>         0.1238
     39 H3          1.0191    3.0752    1.0649 H         1 <0>         0.1243
     40 H4          3.1625    1.8900    1.2796 H         1 <0>         0.1272
     41 H5          1.3457   -1.6414   -0.3568 H         1 <0>         0.1408
     42 H6         -0.7860   -0.4334   -0.5604 H         1 <0>         0.1304
     43 H7          4.5938   -0.1202    0.7497 H         1 <0>         0.1468
     44 H8          7.1761   -3.9314    0.8116 H         1 <0>         0.4146
     45 H9          7.6554   -5.2972   -0.0413 H         1 <0>         0.4085
     46 H10         4.0734   -6.1537   -2.2873 H         1 <0>         0.1082
     47 H11         3.7576   -7.4531   -4.3549 H         1 <0>         0.1128
     48 H12         3.3229   -9.8737   -4.2335 H         1 <0>         0.1124
     49 H13         3.2048  -10.9951   -2.0445 H         1 <0>         0.1142
     50 H14         3.5290   -9.6972    0.0228 H         1 <0>         0.1165
     51 H15        -0.4616   -7.1630   -1.2511 H         1 <0>         0.1241
     52 H16        -2.8455   -7.7660   -1.2702 H         1 <0>         0.1106
     53 H17        -3.5932   -4.9922    1.8871 H         1 <0>         0.1140
     54 H18        -1.2111   -4.3829    1.9316 H         1 <0>         0.1182
@<TRIPOS>BOND
     1    1    6 ar
     2    1    2 ar
     3    1   38 1
     4    2    3 ar
     5    2   39 1
     6    3    4 ar
     7    3   40 1
     8    4    5 ar
     9    4    7 1
    10    5    6 ar
    11    5   41 1
    12    6   42 1
    13    7    8 2
    14    7   43 1
    15    8   37 1
    16    8    9 1
    17    9   10 2
    18    9   11 am
    19   11   17 1
    20   11   12 1
    21   12   13 2
    22   12   37 1
    23   13   14 1
    24   13   27 1
    25   14   15 1
    26   14   16 1
    27   14   21 1
    28   16   17 2
    29   16   19 1
    30   17   18 1
    31   18   44 1
    32   18   45 1
    33   19   20 3
    34   21   26 ar
    35   21   22 ar
    36   22   23 ar
    37   22   46 1
    38   23   24 ar
    39   23   47 1
    40   24   25 ar
    41   24   48 1
    42   25   26 ar
    43   25   49 1
    44   26   50 1
    45   27   28 1
    46   27   29 2
    47   29   30 1
    48   30   35 ar
    49   30   31 ar
    50   31   32 ar
    51   31   51 1
    52   32   33 ar
    53   32   52 1
    54   33   34 ar
    55   33   36 1
    56   34   35 ar
    57   34   53 1
    58   35   54 1
@<TRIPOS>MOLECULE
ZINC09012275
   53    57     0     0     0
SMALL
USER_CHARGES

@<TRIPOS>ATOM
      1 C1          1.3961    1.4494   -0.5635 C.3       1 <0>        -0.0744
      2 C2          0.8976    0.0359   -0.4068 C.2       1 <0>        -0.0134
      3 C3          0.8343   -0.8786   -1.3873 C.2       1 <0>        -0.0557
      4 C4          0.2904   -2.1030   -0.7792 C.2       1 <0>        -0.1544
      5 C5          0.0708   -1.7965    0.5575 C.2       1 <0>         0.0675
      6 N1          0.4439   -0.5193    0.7591 N.pl3     1 <0>        -0.4045
      7 C6          0.3749    0.1477    1.9863 C.ar      1 <0>         0.1583
      8 C7         -0.7660    0.8345    2.3407 C.ar      1 <0>        -0.1019
      9 C8         -0.8458    1.5012    3.5595 C.ar      1 <0>        -0.0689
     10 C9          0.1987    1.4945    4.4344 C.ar      1 <0>        -0.0784
     11 C10         1.3805    0.8055    4.1103 C.ar      1 <0>        -0.0247
     12 C11         1.4704    0.1184    2.8746 C.ar      1 <0>        -0.0404
     13 C12         2.6493   -0.5734    2.5546 C.ar      1 <0>        -0.0904
     14 C13         3.6871   -0.5801    3.4358 C.ar      1 <0>        -0.1118
     15 C14         3.5976    0.0907    4.6539 C.ar      1 <0>        -0.1009
     16 C15         2.4745    0.7813    4.9924 C.ar      1 <0>        -0.1144
     17 Br1         0.0591    2.4115    6.0822 Br        1 <0>        -0.0403
     18 C16        -0.4838   -2.7320    1.6007 C.3       1 <0>        -0.0863
     19 C17         0.0423   -3.3363   -1.4227 C.2       1 <0>         0.0990
     20 C18        -0.6534   -3.3650   -2.6252 C.2       1 <0>        -0.2615
     21 C19        -1.3175   -2.1668   -3.1566 C.2       1 <0>         0.4949
     22 O1         -1.2691   -0.9962   -2.4863 O.3       1 <0>        -0.6138
     23 N2         -1.9634   -2.2613   -4.3070 N.2       1 <0>        -0.6709
     24 C20        -2.0273   -3.4016   -4.9894 C.2       1 <0>         0.6662
     25 N3         -1.4530   -4.5429   -4.5819 N.am      1 <0>        -0.5830
     26 C21        -0.7533   -4.5979   -3.4283 C.2       1 <0>         0.5670
     27 O2         -0.2272   -5.6320   -3.0608 O.2       1 <0>        -0.5342
     28 C22        -1.5809   -5.7479   -5.4052 C.3       1 <0>         0.1846
     29 C23        -0.4364   -5.8117   -6.3835 C.2       1 <0>        -0.0160
     30 C24         0.7495   -6.4092   -6.1688 C.2       1 <0>        -0.1973
     31 C25         1.5175   -6.2284   -7.3420 C.2       1 <0>        -0.2211
     32 C26         0.7550   -5.5313   -8.2034 C.2       1 <0>        -0.0448
     33 O3         -0.4295   -5.2867   -7.6196 O.3       1 <0>        -0.1602
     34 O4         -2.6412   -3.4095   -6.0418 O.2       1 <0>        -0.5739
     35 H1          2.4698    1.4786   -0.3785 H         1 <0>         0.0601
     36 H2          1.1923    1.7963   -1.5765 H         1 <0>         0.0795
     37 H3          0.8865    2.0957    0.1512 H         1 <0>         0.0547
     38 H4          1.1246   -0.7425   -2.4186 H         1 <0>         0.1380
     39 H5         -1.6079    0.8558    1.6645 H         1 <0>         0.1439
     40 H6         -1.7502    2.0329    3.8159 H         1 <0>         0.1418
     41 H7          2.7324   -1.0979    1.6142 H         1 <0>         0.1343
     42 H8          4.5928   -1.1133    3.1873 H         1 <0>         0.1283
     43 H9          4.4351    0.0700    5.3355 H         1 <0>         0.1279
     44 H10         2.4195    1.2972    5.9396 H         1 <0>         0.1360
     45 H11         0.3352   -3.2680    2.0803 H         1 <0>         0.0725
     46 H12        -1.0304   -2.1585    2.3493 H         1 <0>         0.0628
     47 H13        -1.1573   -3.4462    1.1271 H         1 <0>         0.0823
     48 H14         0.3934   -4.2567   -0.9798 H         1 <0>         0.1272
     49 H15        -1.5609   -6.6295   -4.7645 H         1 <0>         0.1123
     50 H16        -2.5240   -5.7167   -5.9509 H         1 <0>         0.1070
     51 H17         1.0564   -6.9270   -5.2722 H         1 <0>         0.1489
     52 H18         2.5235   -6.5819   -7.5136 H         1 <0>         0.1443
     53 H19         1.0447   -5.2239   -9.1974 H         1 <0>         0.1984
@<TRIPOS>BOND
     1    1    2 1
     2    1   35 1
     3    1   36 1
     4    1   37 1
     5    2    6 1
     6    2    3 2
     7    3    4 1
     8    3   38 1
     9    4    5 2
    10    4   19 1
    11    5    6 1
    12    5   18 1
    13    6    7 1
    14    7   12 ar
    15    7    8 ar
    16    8    9 ar
    17    8   39 1
    18    9   10 ar
    19    9   40 1
    20   10   11 ar
    21   10   17 1
    22   11   16 ar
    23   11   12 ar
    24   12   13 ar
    25   13   14 ar
    26   13   41 1
    27   14   15 ar
    28   14   42 1
    29   15   16 ar
    30   15   43 1
    31   16   44 1
    32   18   45 1
    33   18   46 1
    34   18   47 1
    35   19   20 2
    36   19   48 1
    37   20   26 1
    38   20   21 1
    39   21   22 1
    40   21   23 2
    41   23   24 1
    42   24   25 am
    43   24   34 2
    44   25   26 am
    45   25   28 1
    46   26   27 2
    47   28   29 1
    48   28   49 1
    49   28   50 1
    50   29   33 1
    51   29   30 2
    52   30   31 1
    53   30   51 1
    54   31   32 2
    55   31   52 1
    56   32   33 1
    57   32   53 1
@<TRIPOS>MOLECULE
ZINC28463708
   42    45     0     0     0
SMALL
USER_CHARGES
2,5-dibromo-N-[(8R)-8-methyl-6,7,8,9-tetrahydrodibenzofuran-2-yl]benzenesulfonamide
@<TRIPOS>ATOM
      1 C1          8.1468   -6.6242   -5.1102 C.3       1 <0>        -0.1471
      2 C2          7.9597   -5.1897   -4.6119 C.3       1 <0>        -0.0943
      3 H1          7.8909   -4.5117   -5.4754 H         1 <0>         0.0732
      4 C3          9.1542   -4.7913   -3.7403 C.3       1 <0>        -0.1105
      5 C4          9.0935   -3.2890   -3.4431 C.3       1 <0>        -0.0373
      6 C5          7.7098   -2.9550   -2.9337 C.2       1 <0>         0.0108
      7 C6          6.6477   -3.7639   -3.0866 C.2       1 <0>        -0.1783
      8 C7          5.5119   -3.0895   -2.4617 C.ar      1 <0>        -0.0964
      9 C8          4.1633   -3.3987   -2.2870 C.ar      1 <0>        -0.1182
     10 C9          3.3364   -2.5056   -1.6302 C.ar      1 <0>         0.2106
     11 C10         3.8483   -1.3015   -1.1507 C.ar      1 <0>        -0.1718
     12 C11         5.1802   -0.9914   -1.3145 C.ar      1 <0>        -0.0907
     13 C12         6.0263   -1.8762   -1.9707 C.ar      1 <0>        -0.0057
     14 O1          7.3418   -1.8441   -2.2755 O.3       1 <0>        -0.2010
     15 N1          1.9822   -2.8091   -1.4520 N.2       1 <0>        -1.0376
     16 S1          1.2675   -2.5714    0.0228 S.o2      1 <0>         2.5646
     17 O2         -0.0598   -3.0674   -0.0845 O.2       1 <0>        -0.9751
     18 O3          1.5517   -1.2313    0.4006 O.2       1 <0>        -1.0368
     19 C13         2.1006   -3.6080    1.1786 C.ar      1 <0>        -0.6257
     20 C14         2.8179   -3.0468    2.2184 C.ar      1 <0>        -0.0006
     21 C15         3.4716   -3.8605    3.1259 C.ar      1 <0>        -0.1034
     22 C16         3.4074   -5.2361    2.9930 C.ar      1 <0>        -0.0581
     23 C17         2.6907   -5.7971    1.9532 C.ar      1 <0>        -0.1147
     24 C18         2.0365   -4.9832    1.0457 C.ar      1 <0>         0.0131
     25 Br1         1.0551   -5.7508   -0.3769 Br        1 <0>        -0.0072
     26 Br2         4.4594   -3.0927    4.5438 Br        1 <0>        -0.0514
     27 C19         6.6741   -5.1001   -3.7798 C.3       1 <0>        -0.0409
     28 H2          9.0688   -6.6878   -5.7068 H         1 <0>         0.0536
     29 H3          7.2866   -6.9112   -5.7329 H         1 <0>         0.0567
     30 H4          8.2195   -7.3049   -4.2492 H         1 <0>         0.0552
     31 H5          9.1219   -5.3530   -2.7951 H         1 <0>         0.0688
     32 H6         10.0892   -5.0218   -4.2720 H         1 <0>         0.0735
     33 H7          9.8450   -3.0354   -2.6809 H         1 <0>         0.0811
     34 H8          9.3004   -2.7243   -4.3642 H         1 <0>         0.0831
     35 H9          3.7668   -4.3306   -2.6622 H         1 <0>         0.1170
     36 H10         3.1955   -0.6068   -0.6431 H         1 <0>         0.1517
     37 H11         5.5667   -0.0570   -0.9352 H         1 <0>         0.1145
     38 H12         2.8677   -1.9730    2.3224 H         1 <0>         0.1511
     39 H13         3.9180   -5.8715    3.7014 H         1 <0>         0.1390
     40 H14         2.6412   -6.8709    1.8490 H         1 <0>         0.1412
     41 H15         5.8012   -5.1974   -4.4420 H         1 <0>         0.0736
     42 H16         6.6618   -5.9100   -3.0356 H         1 <0>         0.0707
@<TRIPOS>BOND
     1    1    2 1
     2    1   28 1
     3    1   29 1
     4    1   30 1
     5    2    3 1
     6    2   27 1
     7    2    4 1
     8    4    5 1
     9    4   31 1
    10    4   32 1
    11    5    6 1
    12    5   33 1
    13    5   34 1
    14    6   14 1
    15    6    7 2
    16    7    8 1
    17    7   27 1
    18    8   13 ar
    19    8    9 ar
    20    9   10 ar
    21    9   35 1
    22   10   11 ar
    23   10   15 1
    24   11   12 ar
    25   11   36 1
    26   12   13 ar
    27   12   37 1
    28   13   14 1
    29   15   16 1
    30   16   17 2
    31   16   18 2
    32   16   19 1
    33   19   24 ar
    34   19   20 ar
    35   20   21 ar
    36   20   38 1
    37   21   22 ar
    38   21   26 1
    39   22   23 ar
    40   22   39 1
    41   23   24 ar
    42   23   40 1
    43   24   25 1
    44   27   41 1
    45   27   42 1
@<TRIPOS>MOLECULE
ZINC17198178
   43    48     0     0     0
SMALL
USER_CHARGES

@<TRIPOS>ATOM
      1 C1          4.3293    3.4891   -0.4880 C.ar      1 <0>        -0.1494
      2 C2          3.2985    3.0630    0.3354 C.ar      1 <0>        -0.0724
      3 C3          3.1439    1.7257    0.6313 C.ar      1 <0>        -0.1229
      4 C4          4.0251    0.7887    0.1038 C.ar      1 <0>         0.1022
      5 C5          5.0673    1.2222   -0.7295 C.ar      1 <0>        -0.1255
      6 C6          5.2130    2.5755   -1.0211 C.ar      1 <0>        -0.0377
      7 C7          5.8044    0.0063   -1.1120 C.ar      1 <0>         0.1638
      8 C8          5.1433   -1.0516   -0.4769 C.ar      1 <0>        -0.0976
      9 O1          4.1056   -0.5544    0.2264 O.3       1 <0>        -0.1869
     10 C9          5.6416   -2.3453   -0.6713 C.ar      1 <0>         0.4716
     11 N1          6.7111   -2.5092   -1.4436 N.ar      1 <0>        -0.5309
     12 C10         7.3020   -1.4811   -2.0225 C.ar      1 <0>         0.3354
     13 N2          6.8689   -0.2472   -1.8685 N.ar      1 <0>        -0.5331
     14 N3          5.0312   -3.4355   -0.0689 N.pl3     1 <0>        -0.6217
     15 C11         5.6087   -4.7067   -0.1725 C.ar      1 <0>        -0.0118
     16 C12         6.9878   -4.8416   -0.1759 C.ar      1 <0>         0.0158
     17 C13         7.5609   -6.1092   -0.2788 C.ar      1 <0>        -0.1918
     18 C14         9.0305   -6.2608   -0.2826 C.2       1 <0>         0.2810
     19 N4          9.9564   -5.3306   -0.1931 N.2       1 <0>        -0.5638
     20 C15        11.2732   -5.6155   -0.2099 C.ar      1 <0>         0.1085
     21 C16        12.3635   -4.7170   -0.1226 C.ar      1 <0>        -0.0883
     22 C17        13.6447   -5.1709   -0.1556 C.ar      1 <0>        -0.1147
     23 C18        13.9365   -6.5226   -0.2748 C.ar      1 <0>        -0.1355
     24 C19        12.9008   -7.4341   -0.3625 C.ar      1 <0>        -0.0554
     25 C20        11.6029   -6.9863   -0.3305 C.ar      1 <0>        -0.2101
     26 S1         10.0032   -7.7556   -0.4021 S.3       1 <0>         0.0526
     27 C21         6.7373   -7.2374   -0.3780 C.ar      1 <0>         0.2963
     28 O2          7.2880   -8.4753   -0.4780 O.3       1 <0>        -0.6786
     29 C22         5.3598   -7.0890   -0.3734 C.ar      1 <0>        -0.2359
     30 C23         4.7976   -5.8317   -0.2660 C.ar      1 <0>        -0.0572
     31 H1          4.4376    4.5393   -0.7159 H         1 <0>         0.1339
     32 H2          2.6104    3.7855    0.7489 H         1 <0>         0.1384
     33 H3          2.3374    1.4054    1.2741 H         1 <0>         0.1368
     34 H4          6.0155    2.9084   -1.6627 H         1 <0>         0.1349
     35 H5          8.1688   -1.6574   -2.6422 H         1 <0>         0.2043
     36 H6          4.2043   -3.3172    0.4241 H         1 <0>         0.4149
     37 H7          7.6174   -3.9674   -0.0995 H         1 <0>         0.1253
     38 H8         12.1753   -3.6577   -0.0289 H         1 <0>         0.1203
     39 H9         14.4561   -4.4614   -0.0877 H         1 <0>         0.1201
     40 H10        14.9625   -6.8590   -0.2992 H         1 <0>         0.1247
     41 H11        13.1105   -8.4895   -0.4553 H         1 <0>         0.1218
     42 H12         4.7240   -7.9586   -0.4502 H         1 <0>         0.1133
     43 H13         3.7232   -5.7221   -0.2584 H         1 <0>         0.1051
@<TRIPOS>BOND
     1    1    6 ar
     2    1    2 ar
     3    1   31 1
     4    2    3 ar
     5    2   32 1
     6    3    4 ar
     7    3   33 1
     8    4    9 1
     9    4    5 ar
    10    5    6 ar
    11    5    7 1
    12    6   34 1
    13    7   13 ar
    14    7    8 ar
    15    8    9 1
    16    8   10 ar
    17   10   11 ar
    18   10   14 1
    19   11   12 ar
    20   12   13 ar
    21   12   35 1
    22   14   15 1
    23   14   36 1
    24   15   30 ar
    25   15   16 ar
    26   16   17 ar
    27   16   37 1
    28   17   18 1
    29   17   27 ar
    30   18   26 1
    31   18   19 2
    32   19   20 1
    33   20   25 ar
    34   20   21 ar
    35   21   22 ar
    36   21   38 1
    37   22   23 ar
    38   22   39 1
    39   23   24 ar
    40   23   40 1
    41   24   25 ar
    42   24   41 1
    43   25   26 1
    44   27   28 1
    45   27   29 ar
    46   29   30 ar
    47   29   42 1
    48   30   43 1
@<TRIPOS>MOLECULE
ZINC16958729
   44    47     0     0     0
SMALL
USER_CHARGES

@<TRIPOS>ATOM
      1 C1          0.0151    1.4244    0.7353 C.3       1 <0>        -0.0951
      2 C2          0.0218   -0.0768    0.6044 C.2       1 <0>        -0.1931
      3 C3         -1.1677   -0.7544    0.4459 C.2       1 <0>        -0.0075
      4 C4         -1.1690   -2.1442    0.3242 C.2       1 <0>        -0.2692
      5 C5         -2.4416   -2.8748    0.1537 C.2       1 <0>         0.3237
      6 C6         -3.6482   -2.1806    0.2695 C.2       1 <0>        -0.1970
      7 C7         -4.8472   -2.8687    0.1089 C.2       1 <0>         0.1602
      8 C8         -4.7797   -4.2514   -0.1664 C.2       1 <0>        -0.1976
      9 C9         -3.5215   -4.8784   -0.2678 C.cat     1 <0>         0.4182
     10 N1         -3.4885   -6.2302   -0.5371 N.pl3     1 <0>        -0.6088
     11 H1         -2.6363   -6.6875   -0.6122 H         1 <0>         0.4328
     12 C10        -4.6457   -6.9242   -0.6971 C.2       1 <0>         0.5294
     13 S1         -4.5521   -8.6502   -1.0387 S.3       1 <0>        -0.6313
     14 N2         -5.8369   -6.3625   -0.6075 N.2       1 <0>        -0.5098
     15 C11        -5.9803   -5.0629   -0.3512 C.2       1 <0>         0.3704
     16 S2         -7.5827   -4.3390   -0.2376 S.3       1 <0>        -0.5818
     17 N3         -2.4126   -4.1772   -0.1119 N.pl3     1 <0>        -0.4871
     18 C12        -6.1495   -2.1739    0.2234 C.ar      1 <0>        -0.0696
     19 C13        -6.9045   -2.2914    1.3911 C.ar      1 <0>         0.0042
     20 C14        -8.1164   -1.6433    1.4943 C.ar      1 <0>        -0.1488
     21 C15        -8.5868   -0.8743    0.4376 C.ar      1 <0>         0.1401
     22 C16        -7.8381   -0.7555   -0.7264 C.ar      1 <0>        -0.2068
     23 C17        -6.6222   -1.3954   -0.8338 C.ar      1 <0>        -0.0468
     24 O1         -9.7817   -0.2373    0.5425 O.3       1 <0>        -0.3203
     25 C18       -10.2052    0.5367   -0.5816 C.3       1 <0>         0.0290
     26 C19         0.0527   -2.8463    0.3645 C.2       1 <0>         0.3233
     27 O2          0.0685   -4.1774    0.2488 O.2       1 <0>        -0.6495
     28 C20         1.2491   -2.1383    0.5261 C.2       1 <0>        -0.1536
     29 C21         1.2258   -0.7653    0.6386 C.2       1 <0>        -0.0201
     30 Cl1         2.7617   -2.9886    0.5777 Cl        1 <0>        -0.0756
     31 H2          1.0381    1.7839    0.8471 H         1 <0>         0.0586
     32 H3         -0.4293    1.8650   -0.1572 H         1 <0>         0.0604
     33 H4         -0.5681    1.7103    1.6106 H         1 <0>         0.0610
     34 H5         -2.0996   -0.2092    0.4164 H         1 <0>         0.1256
     35 H6         -3.6506   -1.1216    0.4816 H         1 <0>         0.1774
     36 H7         -6.5397   -2.8898    2.2128 H         1 <0>         0.1206
     37 H8         -8.7012   -1.7339    2.3978 H         1 <0>         0.1261
     38 H9         -8.2071   -0.1573   -1.5463 H         1 <0>         0.1230
     39 H10        -6.0383   -1.2988   -1.7373 H         1 <0>         0.1178
     40 H11        -9.4728    1.3190   -0.7808 H         1 <0>         0.0532
     41 H12       -10.2934   -0.1094   -1.4551 H         1 <0>         0.0547
     42 H13       -11.1725    0.9908   -0.3665 H         1 <0>         0.0948
     43 H14         2.1511   -0.2215    0.7589 H         1 <0>         0.1236
     44 H15        -1.5556   -4.6249   -0.1890 H         1 <0>         0.4418
@<TRIPOS>BOND
     1    1    2 1
     2    1   31 1
     3    1   32 1
     4    1   33 1
     5    2   29 1
     6    2    3 2
     7    3    4 1
     8    3   34 1
     9    4    5 2
    10    4   26 1
    11    5   17 1
    12    5    6 1
    13    6    7 2
    14    6   35 1
    15    7    8 1
    16    7   18 1
    17    8   15 2
    18    8    9 1
    19    9   10 1
    20    9   17 2
    21   10   11 1
    22   10   12 1
    23   12   13 1
    24   12   14 2
    25   14   15 1
    26   15   16 1
    27   17   44 1
    28   18   23 ar
    29   18   19 ar
    30   19   20 ar
    31   19   36 1
    32   20   21 ar
    33   20   37 1
    34   21   22 ar
    35   21   24 1
    36   22   23 ar
    37   22   38 1
    38   23   39 1
    39   24   25 1
    40   25   40 1
    41   25   41 1
    42   25   42 1
    43   26   27 2
    44   26   28 1
    45   28   29 2
    46   28   30 1
    47   29   43 1
@<TRIPOS>MOLECULE
ZINC43721601
   84    88     0     0     0
SMALL
USER_CHARGES

@<TRIPOS>ATOM
      1 C1          1.4072    1.5696   -2.2242 C.3       1 <0>        -0.1470
      2 C2          1.1740    0.1064   -1.8341 C.3       1 <0>        -0.0788
      3 H1          1.6914   -0.5360   -2.5520 H         1 <0>         0.0543
      4 C3         -0.3194   -0.1958   -1.8744 C.3       1 <0>        -0.1066
      5 C4         -0.5752   -1.6368   -1.4351 C.3       1 <0>        -0.0883
      6 C5         -0.0561   -1.8423   -0.0120 C.3       1 <0>        -0.1209
      7 C6         -0.2897   -3.2919    0.4174 C.3       1 <0>        -0.0977
      8 C7          0.2241   -3.5470    1.8364 C.3       1 <0>        -0.1014
      9 C8          1.7252   -3.2282    1.9519 C.3       1 <0>        -0.0082
     10 C9          1.8957   -1.8109    1.4560 C.2       1 <0>         0.0161
     11 C10         2.3609   -0.8316    2.2118 C.2       1 <0>        -0.2152
     12 C11         2.7861   -1.1034    3.5897 C.2       1 <0>         0.4029
     13 O1          2.7970   -0.2293    4.4317 O.2       1 <0>        -0.4717
     14 C12         3.2456   -2.5125    3.9010 C.3       1 <0>        -0.1088
     15 H2          3.1883   -2.6128    5.0167 H         1 <0>         0.0802
     16 C13         2.2613   -3.5116    3.3294 C.3       1 <0>        -0.0197
     17 C14         2.7993   -4.9290    3.5008 C.3       1 <0>        -0.1007
     18 C15         4.2432   -5.1194    3.0808 C.3       1 <0>        -0.1140
     19 C16         5.2026   -4.1087    3.7015 C.3       1 <0>        -0.0421
     20 H3          5.2272   -4.3217    4.7932 H         1 <0>         0.0635
     21 C17         4.7138   -2.6817    3.5370 C.3       1 <0>        -0.0189
     22 C18         4.9832   -2.1234    2.1446 C.3       1 <0>        -0.1143
     23 C19         6.4657   -2.2449    1.7951 C.3       1 <0>        -0.1364
     24 C20         6.8740   -3.7120    1.8205 C.3       1 <0>         0.1044
     25 H4          7.9498   -3.7796    1.6014 H         1 <0>         0.0760
     26 C21         6.6144   -4.3512    3.1790 C.3       1 <0>        -0.0444
     27 C22         6.8576   -5.8688    3.0150 C.3       1 <0>        -0.1479
     28 C23         7.6723   -3.8710    4.1832 C.3       1 <0>        -0.1502
     29 O2          6.1726   -4.4270    0.7993 O.3       1 <0>        -0.3346
     30 C24         6.7583   -4.4987   -0.4063 C.2       1 <0>         0.4573
     31 O3          7.8305   -3.9726   -0.5893 O.2       1 <0>        -0.5179
     32 C25         6.0787   -5.2356   -1.5316 C.3       1 <0>        -0.1500
     33 C26         5.4674   -1.7747    4.5485 C.3       1 <0>        -0.1657
     34 C27         1.0590   -3.4524    4.3245 C.3       1 <0>        -0.1605
     35 C28         1.4455   -1.5475    0.0317 C.3       1 <0>        -0.0139
     36 H5          1.9525   -2.2437   -0.6494 H         1 <0>         0.0588
     37 C29         1.7618   -0.1385   -0.4391 C.3       1 <0>        -0.0784
     38 H6          1.3865    0.6057    0.2556 H         1 <0>         0.1044
     39 C30         3.2895    0.0211   -0.5707 C.3       1 <0>        -0.1561
     40 C31         2.4086   -4.1458    0.9305 C.3       1 <0>        -0.1568
     41 C32        -0.7952   -0.9230    0.9256 C.2       1 <0>         0.5107
     42 O4         -2.0062   -1.0101    1.0361 O.co2     1 <0>        -0.7057
     43 O5         -0.1821   -0.0920    1.5737 O.co2     1 <0>        -0.6786
     44 H7          2.4758    1.7839   -2.2087 H         1 <0>         0.0524
     45 H8          1.0158    1.7452   -3.2263 H         1 <0>         0.0450
     46 H9          0.8957    2.2205   -1.5152 H         1 <0>         0.0547
     47 H10        -0.8642    0.5069   -1.2516 H         1 <0>         0.0667
     48 H11        -0.6736   -0.0772   -2.9072 H         1 <0>         0.0429
     49 H12        -1.6444   -1.8474   -1.4668 H         1 <0>         0.0610
     50 H13        -0.0551   -2.3204   -2.1096 H         1 <0>         0.0419
     51 H14        -1.3747   -3.4778    0.4077 H         1 <0>         0.0590
     52 H15         0.1650   -3.9701   -0.2967 H         1 <0>         0.0484
     53 H16        -0.3659   -2.9239    2.5047 H         1 <0>         0.0719
     54 H17         0.0670   -4.6007    2.0771 H         1 <0>         0.0548
     55 H18         2.4064    0.1873    1.8529 H         1 <0>         0.1332
     56 H19         2.7243   -5.1807    4.5786 H         1 <0>         0.0514
     57 H20         2.1525   -5.6492    2.9934 H         1 <0>         0.0677
     58 H21         4.5080   -6.1297    3.4690 H         1 <0>         0.0488
     59 H22         4.3695   -5.1627    2.0095 H         1 <0>         0.0859
     60 H23         4.3965   -2.6453    1.3975 H         1 <0>         0.0856
     61 H24         4.7117   -1.0607    2.1274 H         1 <0>         0.0675
     62 H25         6.6161   -1.8530    0.7798 H         1 <0>         0.0639
     63 H26         7.0779   -1.6599    2.4734 H         1 <0>         0.0803
     64 H27         6.1361   -6.2781    2.3080 H         1 <0>         0.0683
     65 H28         7.8678   -6.0366    2.6415 H         1 <0>         0.0484
     66 H29         6.7406   -6.3619    3.9800 H         1 <0>         0.0560
     67 H30         7.4605   -4.2950    5.1647 H         1 <0>         0.0635
     68 H31         8.6596   -4.1943    3.8532 H         1 <0>         0.0551
     69 H32         7.6479   -2.7830    4.2443 H         1 <0>         0.0675
     70 H33         5.4411   -4.5459   -2.0847 H         1 <0>         0.1052
     71 H34         6.8319   -5.6506   -2.2013 H         1 <0>         0.0987
     72 H35         5.4715   -6.0432   -1.1226 H         1 <0>         0.0937
     73 H36         5.3972   -2.2070    5.5466 H         1 <0>         0.0533
     74 H37         6.5154   -1.6993    4.2582 H         1 <0>         0.0626
     75 H38         5.0185   -0.7814    4.5504 H         1 <0>         0.0632
     76 H39         0.3177   -4.2005    4.0437 H         1 <0>         0.0617
     77 H40         1.4137   -3.6539    5.3353 H         1 <0>         0.0494
     78 H41         0.6065   -2.4614    4.2891 H         1 <0>         0.0583
     79 H42         3.5210    1.0278   -0.9187 H         1 <0>         0.0495
     80 H43         3.7570   -0.1443    0.4000 H         1 <0>         0.0569
     81 H44         3.6706   -0.7074   -1.2863 H         1 <0>         0.0424
     82 H45         2.0397   -3.9153   -0.0690 H         1 <0>         0.0612
     83 H46         3.4867   -3.9887    0.9651 H         1 <0>         0.0690
     84 H47         2.1851   -5.1855    1.1695 H         1 <0>         0.0560
@<TRIPOS>BOND
     1    1    2 1
     2    1   44 1
     3    1   45 1
     4    1   46 1
     5    2    3 1
     6    2   37 1
     7    2    4 1
     8    4    5 1
     9    4   47 1
    10    4   48 1
    11    5    6 1
    12    5   49 1
    13    5   50 1
    14    6   35 1
    15    6    7 1
    16    6   41 1
    17    7    8 1
    18    7   51 1
    19    7   52 1
    20    8    9 1
    21    8   53 1
    22    8   54 1
    23    9   16 1
    24    9   10 1
    25    9   40 1
    26   10   11 2
    27   10   35 1
    28   11   12 1
    29   11   55 1
    30   12   13 2
    31   12   14 1
    32   14   15 1
    33   14   21 1
    34   14   16 1
    35   16   17 1
    36   16   34 1
    37   17   18 1
    38   17   56 1
    39   17   57 1
    40   18   19 1
    41   18   58 1
    42   18   59 1
    43   19   20 1
    44   19   26 1
    45   19   21 1
    46   21   22 1
    47   21   33 1
    48   22   23 1
    49   22   60 1
    50   22   61 1
    51   23   24 1
    52   23   62 1
    53   23   63 1
    54   24   25 1
    55   24   26 1
    56   24   29 1
    57   26   27 1
    58   26   28 1
    59   27   64 1
    60   27   65 1
    61   27   66 1
    62   28   67 1
    63   28   68 1
    64   28   69 1
    65   29   30 1
    66   30   31 2
    67   30   32 1
    68   32   70 1
    69   32   71 1
    70   32   72 1
    71   33   73 1
    72   33   74 1
    73   33   75 1
    74   34   76 1
    75   34   77 1
    76   34   78 1
    77   35   36 1
    78   35   37 1
    79   37   38 1
    80   37   39 1
    81   39   79 1
    82   39   80 1
    83   39   81 1
    84   40   82 1
    85   40   83 1
    86   40   84 1
    87   41   42 2
    88   41   43 1
@<TRIPOS>MOLECULE
ZINC59146177
   45    49     0     0     0
SMALL
USER_CHARGES

@<TRIPOS>ATOM
      1 C1         -0.0069    1.3673   -0.3239 C.ar      1 <0>        -0.1545
      2 C2          1.1806    2.0795   -0.2832 C.ar      1 <0>        -0.0849
      3 C3          2.3907    1.4250   -0.1659 C.ar      1 <0>        -0.1541
      4 C4          2.4291    0.0378   -0.0866 C.ar      1 <0>         0.1463
      5 C5          1.2246   -0.6807   -0.1277 C.ar      1 <0>        -0.0905
      6 C6          0.0093   -0.0102   -0.2467 C.ar      1 <0>        -0.0557
      7 C7          1.5863   -2.1085   -0.0246 C.2       1 <0>        -0.0771
      8 C8          0.7287   -3.1979   -0.0226 C.2       1 <0>        -0.0524
      9 C9         -0.7490   -3.2416    0.0836 C.2       1 <0>         0.4763
     10 O1         -1.4828   -2.1123    0.2010 O.3       1 <0>        -0.5966
     11 N1         -1.3026   -4.4054    0.0587 N.2       1 <0>        -0.6195
     12 C10        -0.5859   -5.5412   -0.0582 C.2       1 <0>         0.4439
     13 N2         -1.0195   -6.7869   -0.0970 N.2       1 <0>        -0.5262
     14 C11        -2.3524   -7.0461   -0.0136 C.ar      1 <0>         0.3336
     15 C12        -2.8072   -8.3700   -0.0494 C.ar      1 <0>        -0.1748
     16 C13        -4.1641   -8.6152    0.0370 C.ar      1 <0>        -0.0721
     17 C14        -5.0285   -7.5338    0.1566 C.ar      1 <0>        -0.2221
     18 C15        -4.5136   -6.2510    0.1859 C.ar      1 <0>         0.1165
     19 N3         -3.2154   -6.0400    0.1071 N.ar      1 <0>        -0.4735
     20 S1          1.0953   -4.9438   -0.1555 S.3       1 <0>        -0.0603
     21 C16         3.0585   -2.1247    0.0750 C.2       1 <0>         0.5521
     22 O2          3.7584   -3.1149    0.1770 O.2       1 <0>        -0.4691
     23 N4          3.4897   -0.8524    0.0337 N.am      1 <0>        -0.5419
     24 C17         4.8978   -0.4547    0.1061 C.3       1 <0>         0.1555
     25 C18         5.2857   -0.2401    1.5464 C.ar      1 <0>        -0.1024
     26 C19         5.3354    1.0402    2.0654 C.ar      1 <0>        -0.0751
     27 C20         5.6911    1.2378    3.3861 C.ar      1 <0>        -0.1121
     28 C21         5.9972    0.1539    4.1901 C.ar      1 <0>        -0.0182
     29 C22         5.9473   -1.1274    3.6716 C.ar      1 <0>        -0.1086
     30 C23         5.5865   -1.3248    2.3506 C.ar      1 <0>        -0.0197
     31 Cl1         5.5176   -2.9331    1.7005 Cl        1 <0>        -0.0042
     32 Cl2         6.4445    0.4023    5.8490 Cl        1 <0>        -0.0613
     33 H1         -0.9472    1.8913   -0.4117 H         1 <0>         0.1242
     34 H2          1.1597    3.1576   -0.3441 H         1 <0>         0.1229
     35 H3          3.3093    1.9921   -0.1359 H         1 <0>         0.1178
     36 H4         -0.9161   -0.5662   -0.2780 H         1 <0>         0.1878
     37 H5         -2.1076   -9.1874   -0.1436 H         1 <0>         0.1292
     38 H6         -4.5448   -9.6255    0.0117 H         1 <0>         0.1250
     39 H7         -6.0943   -7.6940    0.2258 H         1 <0>         0.1212
     40 H8         -5.1848   -5.4101    0.2785 H         1 <0>         0.1435
     41 H9          5.5197   -1.2395   -0.3246 H         1 <0>         0.1060
     42 H10         5.0431    0.4708   -0.4510 H         1 <0>         0.0995
     43 H11         5.0966    1.8865    1.4383 H         1 <0>         0.1417
     44 H12         5.7304    2.2383    3.7908 H         1 <0>         0.1402
     45 H13         6.1862   -1.9736    4.2987 H         1 <0>         0.1436
@<TRIPOS>BOND
     1    1    6 ar
     2    1    2 ar
     3    1   33 1
     4    2    3 ar
     5    2   34 1
     6    3    4 ar
     7    3   35 1
     8    4   23 1
     9    4    5 ar
    10    5    6 ar
    11    5    7 1
    12    6   36 1
    13    7    8 2
    14    7   21 1
    15    8   20 1
    16    8    9 1
    17    9   10 1
    18    9   11 2
    19   11   12 1
    20   12   13 2
    21   12   20 1
    22   13   14 1
    23   14   19 ar
    24   14   15 ar
    25   15   16 ar
    26   15   37 1
    27   16   17 ar
    28   16   38 1
    29   17   18 ar
    30   17   39 1
    31   18   19 ar
    32   18   40 1
    33   21   22 2
    34   21   23 am
    35   23   24 1
    36   24   25 1
    37   24   41 1
    38   24   42 1
    39   25   30 ar
    40   25   26 ar
    41   26   27 ar
    42   26   43 1
    43   27   28 ar
    44   27   44 1
    45   28   29 ar
    46   28   32 1
    47   29   30 ar
    48   29   45 1
    49   30   31 1
@<TRIPOS>MOLECULE
ZINC64937826
   33    35     0     0     0
SMALL
USER_CHARGES

@<TRIPOS>ATOM
      1 C1         -0.0168    1.3855    0.0097 C.ar      1 <0>        -0.1072
      2 C2          1.1705    2.0905    0.0021 C.ar      1 <0>        -0.0035
      3 C3          2.3775    1.4153   -0.0130 C.ar      1 <0>        -0.6058
      4 C4          2.4001    0.0325   -0.0211 C.ar      1 <0>         0.0005
      5 C5          1.2168   -0.6791   -0.0137 C.ar      1 <0>        -0.1462
      6 C6          0.0021   -0.0041    0.0020 C.ar      1 <0>        -0.0709
      7 S1         -1.5104   -0.9079    0.0122 S.3       1 <0>        -0.0259
      8 C7         -0.9844   -2.6439   -0.0023 C.3       1 <0>         0.4517
      9 F1         -0.2067   -2.9050    1.1309 F         1 <0>        -0.1608
     10 F2         -2.1115   -3.4727    0.0044 F         1 <0>        -0.1470
     11 F3         -0.2294   -2.8927   -1.1535 F         1 <0>        -0.1619
     12 S2          3.8900    2.3191   -0.0226 S.o2      1 <0>         2.6042
     13 O1          4.8721    1.4614   -0.5875 O.2       1 <0>        -1.0211
     14 O2          3.5946    3.5994   -0.5638 O.2       1 <0>        -1.0209
     15 N1          4.3254    2.5617    1.5566 N.2       1 <0>        -1.0810
     16 C8          5.4992    3.2597    1.8591 C.ar      1 <0>         0.3004
     17 C9          6.2972    3.7545    0.8337 C.ar      1 <0>        -0.2439
     18 C10         7.4570    4.4437    1.1264 C.ar      1 <0>        -0.0199
     19 C11         7.8298    4.6447    2.4464 C.ar      1 <0>        -0.0779
     20 C12         7.0306    4.1496    3.4766 C.ar      1 <0>         0.1107
     21 C13         5.8637    3.4628    3.1821 C.ar      1 <0>        -0.1700
     22 N2          7.6561    4.5037    4.6718 N.am      1 <0>        -0.6502
     23 H1          7.3408    4.3003    5.5663 H         1 <0>         0.4352
     24 C14         8.7784    5.1801    4.3571 C.2       1 <0>         0.6350
     25 O3          9.5694    5.6393    5.1584 O.2       1 <0>        -0.5191
     26 O4          8.8882    5.2680    3.0225 O.3       1 <0>        -0.2406
     27 H2         -0.9588    1.9134    0.0260 H         1 <0>         0.1392
     28 H3          1.1566    3.1704    0.0077 H         1 <0>         0.1509
     29 H4          3.3444   -0.4914   -0.0337 H         1 <0>         0.1479
     30 H5          1.2352   -1.7589   -0.0204 H         1 <0>         0.1282
     31 H6          6.0089    3.5989   -0.1954 H         1 <0>         0.1169
     32 H7          8.0742    4.8261    0.3269 H         1 <0>         0.1253
     33 H8          5.2425    3.0829    3.9798 H         1 <0>         0.1278
@<TRIPOS>BOND
     1    1    6 ar
     2    1    2 ar
     3    1   27 1
     4    2    3 ar
     5    2   28 1
     6    3    4 ar
     7    3   12 1
     8    4    5 ar
     9    4   29 1
    10    5    6 ar
    11    5   30 1
    12    6    7 1
    13    7    8 1
    14    8    9 1
    15    8   10 1
    16    8   11 1
    17   12   13 2
    18   12   14 2
    19   12   15 1
    20   15   16 1
    21   16   21 ar
    22   16   17 ar
    23   17   18 ar
    24   17   31 1
    25   18   19 ar
    26   18   32 1
    27   19   26 1
    28   19   20 ar
    29   20   21 ar
    30   20   22 1
    31   21   33 1
    32   22   23 1
    33   22   24 am
    34   24   25 2
    35   24   26 1
@<TRIPOS>MOLECULE
ZINC27516858
   48    52     0     0     0
SMALL
USER_CHARGES
(2-bromophenyl)-tert-butyl-BLAHone
@<TRIPOS>ATOM
      1 C1         -1.4062    6.5013   -0.3837 C.3       1 <0>        -0.1444
      2 C2         -1.8741    5.0876   -0.0323 C.3       1 <0>        -0.0625
      3 C3         -3.1128    4.7398   -0.8602 C.3       1 <0>        -0.1447
      4 C4         -2.2204    5.0204    1.4565 C.3       1 <0>        -0.1480
      5 C5         -0.7570    4.0890   -0.3417 C.3       1 <0>        -0.0689
      6 H1         -0.5175    4.1416   -1.4140 H         1 <0>         0.0728
      7 C6          0.4845    4.4346    0.4857 C.3       1 <0>        -0.1155
      8 C7          1.6761    3.6044    0.0068 C.3       1 <0>        -0.0583
      9 C8          1.2787    2.1311    0.0013 C.2       1 <0>        -0.0130
     10 C9         -0.0220    1.7683    0.0118 C.2       1 <0>        -0.2276
     11 S1          0.0021   -0.0041    0.0020 S.3       1 <0>         0.0593
     12 C10         1.7599   -0.2433   -0.0161 C.2       1 <0>         0.1911
     13 C11         2.2672    1.0537   -0.0142 C.2       1 <0>        -0.2710
     14 C12         3.7466    1.1554   -0.0282 C.2       1 <0>         0.3729
     15 N1          4.5665    2.1840   -0.0319 N.2       1 <0>        -0.5492
     16 C13         5.8325    1.7461   -0.0459 C.2       1 <0>         0.2381
     17 N2          5.8371    0.4303   -0.0512 N.2       1 <0>        -0.2673
     18 N3          4.4959    0.0147   -0.0407 N.pl3     1 <0>        -0.3757
     19 C14         3.9208   -1.1989   -0.0405 C.2       1 <0>         0.6639
     20 O1          4.6232   -2.1916   -0.0511 O.3       1 <0>        -0.5534
     21 N4          2.5806   -1.3379   -0.0297 N.2       1 <0>        -0.5958
     22 C15         7.0396    2.6090   -0.0536 C.ar      1 <0>         0.0317
     23 C16         6.9077    3.9962   -0.0472 C.ar      1 <0>        -0.0752
     24 C17         8.0336    4.7941   -0.0540 C.ar      1 <0>        -0.1130
     25 C18         9.2922    4.2196   -0.0670 C.ar      1 <0>        -0.1107
     26 C19         9.4299    2.8437   -0.0738 C.ar      1 <0>        -0.0988
     27 C20         8.3100    2.0351   -0.0613 C.ar      1 <0>        -0.0737
     28 Br1         8.4997    0.1536   -0.0627 Br        1 <0>        -0.0074
     29 C21        -1.2167    2.6712    0.0226 C.3       1 <0>        -0.0181
     30 H2         -0.5156    6.7513    0.2116 H         1 <0>         0.0600
     31 H3         -2.2094    7.2192   -0.1612 H         1 <0>         0.0505
     32 H4         -1.1573    6.5497   -1.4541 H         1 <0>         0.0536
     33 H5         -3.4492    3.7234   -0.6075 H         1 <0>         0.0586
     34 H6         -2.8638    4.7882   -1.9306 H         1 <0>         0.0539
     35 H7         -3.9159    5.4578   -0.6377 H         1 <0>         0.0506
     36 H8         -2.5568    4.0040    1.7092 H         1 <0>         0.0602
     37 H9         -3.0235    5.7384    1.6789 H         1 <0>         0.0492
     38 H10        -1.3298    5.2705    2.0517 H         1 <0>         0.0587
     39 H11         0.7167    5.5035    0.3695 H         1 <0>         0.0663
     40 H12         0.2914    4.2145    1.5460 H         1 <0>         0.0642
     41 H13         1.9570    3.9184   -1.0093 H         1 <0>         0.0706
     42 H14         2.5271    3.7583    0.6866 H         1 <0>         0.0810
     43 H15         5.9259    4.4462   -0.0374 H         1 <0>         0.1437
     44 H16         7.9321    5.8693   -0.0487 H         1 <0>         0.1314
     45 H17        10.1704    4.8482   -0.0722 H         1 <0>         0.1304
     46 H18        10.4148    2.4006   -0.0843 H         1 <0>         0.1338
     47 H19        -1.6726    2.6795    1.0236 H         1 <0>         0.0756
     48 H20        -1.9563    2.3248   -0.7143 H         1 <0>         0.0703
@<TRIPOS>BOND
     1    1    2 1
     2    1   30 1
     3    1   31 1
     4    1   32 1
     5    2    3 1
     6    2    4 1
     7    2    5 1
     8    3   33 1
     9    3   34 1
    10    3   35 1
    11    4   36 1
    12    4   37 1
    13    4   38 1
    14    5    6 1
    15    5   29 1
    16    5    7 1
    17    7    8 1
    18    7   39 1
    19    7   40 1
    20    8    9 1
    21    8   41 1
    22    8   42 1
    23    9   13 1
    24    9   10 2
    25   10   11 1
    26   10   29 1
    27   11   12 1
    28   12   21 1
    29   12   13 2
    30   13   14 1
    31   14   18 1
    32   14   15 2
    33   15   16 1
    34   16   17 2
    35   16   22 1
    36   17   18 1
    37   18   19 1
    38   19   20 1
    39   19   21 2
    40   22   27 ar
    41   22   23 ar
    42   23   24 ar
    43   23   43 1
    44   24   25 ar
    45   24   44 1
    46   25   26 ar
    47   25   45 1
    48   26   27 ar
    49   26   46 1
    50   27   28 1
    51   29   47 1
    52   29   48 1
@<TRIPOS>MOLECULE
ZINC35518903
   38    41     0     0     0
SMALL
USER_CHARGES

@<TRIPOS>ATOM
      1 C1         -0.0169    1.3929    0.0097 C.ar      1 <0>        -0.0828
      2 C2          1.1695    2.0962    0.0021 C.ar      1 <0>        -0.0917
      3 C3          2.3783    1.4210   -0.0130 C.ar      1 <0>        -0.0290
      4 C4          2.4048    0.0348   -0.0207 C.ar      1 <0>        -0.0279
      5 C5          1.2249   -0.6803   -0.0133 C.ar      1 <0>        -0.0801
      6 C6          0.0021   -0.0041    0.0020 C.ar      1 <0>         0.0052
      7 C7         -1.2637   -0.7622    0.0105 C.2       1 <0>         0.0275
      8 C8         -1.3787   -2.1349    0.0098 C.2       1 <0>        -0.1785
      9 C9         -2.7428   -2.4306    0.0195 C.2       1 <0>        -0.1545
     10 C10        -3.4150   -1.2194    0.0259 C.2       1 <0>         0.0111
     11 O1         -2.4982   -0.2286    0.0261 O.3       1 <0>        -0.1505
     12 C11        -4.8128   -1.0509    0.0364 C.2       1 <0>         0.0200
     13 C12        -5.3555    0.2201    0.0419 C.2       1 <0>         0.0197
     14 C13        -4.4963    1.3656    0.0368 C.1       1 <0>         0.2746
     15 N1         -3.8146    2.2744    0.0328 N.1       1 <0>        -0.4165
     16 C14        -6.8214    0.3968    0.0530 C.ar      1 <0>         0.4073
     17 N2         -7.3127    1.6249    0.0525 N.ar      1 <0>        -0.5961
     18 C15        -8.6369    1.8239    0.0619 C.ar      1 <0>         0.1992
     19 C16        -9.1926    3.1119    0.0613 C.ar      1 <0>        -0.1254
     20 C17       -10.5473    3.2605    0.0707 C.ar      1 <0>        -0.0736
     21 C18       -11.3911    2.1519    0.0815 C.ar      1 <0>        -0.0961
     22 C19       -10.8835    0.8847    0.0824 C.ar      1 <0>        -0.0123
     23 C20        -9.4970    0.6971    0.0724 C.ar      1 <0>        -0.2233
     24 C21        -8.9151   -0.5936    0.0723 C.ar      1 <0>         0.4780
     25 O2         -9.6898   -1.7028    0.0815 O.3       1 <0>        -0.6550
     26 N3         -7.5972   -0.6888    0.0575 N.ar      1 <0>        -0.6229
     27 Cl1       -13.1113    2.3853    0.0945 Cl        1 <0>        -0.0955
     28 Cl2         3.9253   -0.8027   -0.0403 Cl        1 <0>        -0.0438
     29 Cl3         3.8670    2.3140   -0.0230 Cl        1 <0>        -0.0469
     30 H1         -0.9588    1.9211    0.0260 H         1 <0>         0.1495
     31 H2          1.1557    3.1761    0.0077 H         1 <0>         0.1489
     32 H3          1.2462   -1.7601   -0.0197 H         1 <0>         0.1500
     33 H4         -0.5671   -2.8474    0.0030 H         1 <0>         0.1578
     34 H5         -3.1884   -3.4144    0.0212 H         1 <0>         0.1666
     35 H6         -5.4608   -1.9148    0.0403 H         1 <0>         0.1917
     36 H7         -8.5508    3.9804    0.0537 H         1 <0>         0.1323
     37 H8        -10.9732    4.2530    0.0702 H         1 <0>         0.1267
     38 H9        -11.5475    0.0329    0.0905 H         1 <0>         0.1361
@<TRIPOS>BOND
     1    1    6 ar
     2    1    2 ar
     3    1   30 1
     4    2    3 ar
     5    2   31 1
     6    3    4 ar
     7    3   29 1
     8    4    5 ar
     9    4   28 1
    10    5    6 ar
    11    5   32 1
    12    6    7 1
    13    7   11 1
    14    7    8 2
    15    8    9 1
    16    8   33 1
    17    9   10 2
    18    9   34 1
    19   10   11 1
    20   10   12 1
    21   12   13 2
    22   12   35 1
    23   13   14 1
    24   13   16 1
    25   14   15 3
    26   16   26 ar
    27   16   17 ar
    28   17   18 ar
    29   18   23 ar
    30   18   19 ar
    31   19   20 ar
    32   19   36 1
    33   20   21 ar
    34   20   37 1
    35   21   22 ar
    36   21   27 1
    37   22   23 ar
    38   22   38 1
    39   23   24 ar
    40   24   25 1
    41   24   26 ar
@<TRIPOS>MOLECULE
ZINC39557011
   51    55     0     0     0
SMALL
USER_CHARGES

@<TRIPOS>ATOM
      1 C1          2.3791    0.0414   -0.8769 C.3       1 <0>        -0.1087
      2 C2          1.1505   -0.7038   -0.4228 C.ar      1 <0>        -0.0822
      3 C3          0.0063   -0.6875   -1.1994 C.ar      1 <0>        -0.1241
      4 C4         -1.1228   -1.3700   -0.7861 C.ar      1 <0>        -0.1110
      5 C5         -1.1110   -2.0705    0.4045 C.ar      1 <0>        -0.1138
      6 C6          0.0360   -2.0887    1.1861 C.ar      1 <0>         0.1714
      7 C7          1.1702   -1.4069    0.7656 C.ar      1 <0>        -0.0861
      8 N1          0.0509   -2.7982    2.3950 N.am      1 <0>        -0.5362
      9 C8         -0.0208   -4.1410    2.5245 C.2       1 <0>         0.5159
     10 O1         -0.1100   -4.9641    1.6305 O.2       1 <0>        -0.5125
     11 C9          0.0319   -4.4007    3.9696 C.2       1 <0>        -0.0356
     12 C10        -0.0095   -5.6307    4.5950 C.2       1 <0>         0.0128
     13 C11         0.0521   -5.7093    6.0085 C.2       1 <0>        -0.1620
     14 C12         0.1481   -4.6553    6.8922 C.2       1 <0>         0.1221
     15 N2          0.1824   -5.1317    8.1619 N.pl3     1 <0>        -0.4701
     16 C13         0.1108   -6.5099    8.1643 C.ar      1 <0>         0.0889
     17 C14         0.0200   -6.9355    6.8295 C.ar      1 <0>        -0.0800
     18 C15        -0.0712   -8.2925    6.5334 C.ar      1 <0>        -0.0748
     19 C16        -0.0757   -9.2157    7.5568 C.ar      1 <0>        -0.1475
     20 C17         0.0098   -8.7973    8.8763 C.ar      1 <0>        -0.1115
     21 C18         0.1089   -7.4574    9.1831 C.ar      1 <0>        -0.1249
     22 C19         0.2821   -4.2991    9.3632 C.3       1 <0>         0.1455
     23 C20         1.7262   -4.1888    9.7796 C.ar      1 <0>        -0.1087
     24 C21         2.2397   -5.0519   10.7295 C.ar      1 <0>        -0.0881
     25 C22         3.5643   -4.9509   11.1114 C.ar      1 <0>        -0.1223
     26 C23         4.3764   -3.9866   10.5437 C.ar      1 <0>        -0.1008
     27 C24         3.8642   -3.1232    9.5940 C.ar      1 <0>        -0.1132
     28 C25         2.5398   -3.2276    9.2071 C.ar      1 <0>        -0.0247
     29 Cl1         1.8973   -2.1476    8.0093 Cl        1 <0>        -0.0246
     30 N3          0.1311   -3.1744    4.5694 N.2       1 <0>        -0.5460
     31 C26         0.1468   -2.2470    3.6496 C.2       1 <0>         0.4957
     32 S1          0.2698   -0.5196    3.9749 S.3       1 <0>        -0.7643
     33 H1          2.9982   -0.6162   -1.4871 H         1 <0>         0.0661
     34 H2          2.0810    0.9091   -1.4655 H         1 <0>         0.0646
     35 H3          2.9469    0.3705   -0.0066 H         1 <0>         0.0672
     36 H4         -0.0054   -0.1403   -2.1305 H         1 <0>         0.1202
     37 H5         -2.0150   -1.3553   -1.3945 H         1 <0>         0.1231
     38 H6         -1.9934   -2.6032    0.7270 H         1 <0>         0.1177
     39 H7          2.0655   -1.4232    1.3693 H         1 <0>         0.1229
     40 H8         -0.0890   -6.5330    4.0069 H         1 <0>         0.1297
     41 H9          0.1899   -3.6120    6.6163 H         1 <0>         0.2109
     42 H10        -0.1385   -8.6204    5.5066 H         1 <0>         0.1212
     43 H11        -0.1463  -10.2693    7.3302 H         1 <0>         0.1186
     44 H12         0.0051   -9.5289    9.6708 H         1 <0>         0.1193
     45 H13         0.1733   -7.1423   10.2141 H         1 <0>         0.1125
     46 H14        -0.1116   -3.3053    9.1502 H         1 <0>         0.1075
     47 H15        -0.2946   -4.7533   10.1690 H         1 <0>         0.0974
     48 H16         1.6057   -5.8051   11.1735 H         1 <0>         0.1287
     49 H17         3.9649   -5.6252   11.8538 H         1 <0>         0.1281
     50 H18         5.4112   -3.9079   10.8428 H         1 <0>         0.1307
     51 H19         4.4986   -2.3699    9.1508 H         1 <0>         0.1353
@<TRIPOS>BOND
     1    1    2 1
     2    1   33 1
     3    1   34 1
     4    1   35 1
     5    2    7 ar
     6    2    3 ar
     7    3    4 ar
     8    3   36 1
     9    4    5 ar
    10    4   37 1
    11    5    6 ar
    12    5   38 1
    13    6    7 ar
    14    6    8 1
    15    7   39 1
    16    8   31 1
    17    8    9 am
    18    9   10 2
    19    9   11 1
    20   11   12 2
    21   11   30 1
    22   12   13 1
    23   12   40 1
    24   13   17 1
    25   13   14 2
    26   14   15 1
    27   14   41 1
    28   15   16 1
    29   15   22 1
    30   16   21 ar
    31   16   17 ar
    32   17   18 ar
    33   18   19 ar
    34   18   42 1
    35   19   20 ar
    36   19   43 1
    37   20   21 ar
    38   20   44 1
    39   21   45 1
    40   22   23 1
    41   22   46 1
    42   22   47 1
    43   23   28 ar
    44   23   24 ar
    45   24   25 ar
    46   24   48 1
    47   25   26 ar
    48   25   49 1
    49   26   27 ar
    50   26   50 1
    51   27   28 ar
    52   27   51 1
    53   28   29 1
    54   30   31 2
    55   31   32 1
@<TRIPOS>MOLECULE
ZINC41078072
   39    42     0     0     0
SMALL
USER_CHARGES

@<TRIPOS>ATOM
      1 C1         -0.0165    1.3660    0.0096 C.ar      1 <0>        -0.1093
      2 C2          1.1564    2.1073    0.0023 C.ar      1 <0>        -0.1556
      3 C3          2.3734    1.4501   -0.0128 C.ar      1 <0>        -0.0507
      4 C4          2.4028    0.0782   -0.0205 C.ar      1 <0>        -0.2121
      5 C5          1.2284   -0.7103   -0.0135 C.ar      1 <0>         0.1409
      6 C6          0.0021   -0.0041    0.0020 C.ar      1 <0>        -0.1092
      7 N1          1.4187   -2.0450   -0.0225 N.2       1 <0>        -0.5908
      8 C7          2.6229   -2.5868   -0.0370 C.2       1 <0>         0.4531
      9 S1          3.6862   -1.1503   -0.0394 S.3       1 <0>        -0.0629
     10 N2          2.9637   -3.8922   -0.0466 N.2       1 <0>        -0.5783
     11 C8          4.2353   -4.2417   -0.0608 C.2       1 <0>         0.4629
     12 O1          5.1973   -3.2919   -0.0656 O.3       1 <0>        -0.6478
     13 C9          4.6054   -5.6595   -0.0712 C.2       1 <0>        -0.0094
     14 C10         5.9445   -6.0275   -0.0862 C.2       1 <0>         0.0208
     15 C11         6.2991   -7.3858   -0.0962 C.2       1 <0>         0.0073
     16 C12         7.5922   -7.8896   -0.1057 C.2       1 <0>        -0.1533
     17 C13         7.4830   -9.2793   -0.1131 C.2       1 <0>        -0.1819
     18 C14         6.1367   -9.5790   -0.1079 C.2       1 <0>         0.0340
     19 O2          5.4410   -8.4286   -0.0923 O.3       1 <0>        -0.1488
     20 C15         5.5571  -10.9353   -0.1127 C.ar      1 <0>        -0.0131
     21 C16         6.3930  -12.0556   -0.1176 C.ar      1 <0>        -0.0647
     22 C17         5.8460  -13.3207   -0.1216 C.ar      1 <0>        -0.1377
     23 C18         4.4693  -13.4841   -0.1212 C.ar      1 <0>         0.1128
     24 C19         3.6339  -12.3764   -0.1169 C.ar      1 <0>        -0.0692
     25 C20         4.1700  -11.1052   -0.1066 C.ar      1 <0>        -0.0637
     26 Cl1         1.9112  -12.5904   -0.1171 Cl        1 <0>        -0.0394
     27 F1          3.9392  -14.7267   -0.1256 F         1 <0>        -0.1242
     28 C21         3.5864   -6.6656   -0.0661 C.1       1 <0>         0.2670
     29 N3          2.7780   -7.4637   -0.0620 N.1       1 <0>        -0.4116
     30 H1         -0.9658    1.8807    0.0260 H         1 <0>         0.1161
     31 H2          1.1195    3.1867    0.0081 H         1 <0>         0.1196
     32 H3          3.2950    2.0133   -0.0190 H         1 <0>         0.1159
     33 H4         -0.9292   -0.5509    0.0080 H         1 <0>         0.1172
     34 H5          6.7130   -5.2687   -0.0900 H         1 <0>         0.1869
     35 H6          8.5070   -7.3156   -0.1074 H         1 <0>         0.1657
     36 H7          8.2984   -9.9874   -0.1219 H         1 <0>         0.1586
     37 H8          7.4657  -11.9301   -0.1186 H         1 <0>         0.1478
     38 H9          6.4913  -14.1867   -0.1254 H         1 <0>         0.1524
     39 H10         3.5192  -10.2434   -0.0983 H         1 <0>         0.1546
@<TRIPOS>BOND
     1    1    6 ar
     2    1    2 ar
     3    1   30 1
     4    2    3 ar
     5    2   31 1
     6    3    4 ar
     7    3   32 1
     8    4    9 1
     9    4    5 ar
    10    5    6 ar
    11    5    7 1
    12    6   33 1
    13    7    8 2
    14    8    9 1
    15    8   10 1
    16   10   11 2
    17   11   12 1
    18   11   13 1
    19   13   14 2
    20   13   28 1
    21   14   15 1
    22   14   34 1
    23   15   19 1
    24   15   16 2
    25   16   17 1
    26   16   35 1
    27   17   18 2
    28   17   36 1
    29   18   19 1
    30   18   20 1
    31   20   25 ar
    32   20   21 ar
    33   21   22 ar
    34   21   37 1
    35   22   23 ar
    36   22   38 1
    37   23   24 ar
    38   23   27 1
    39   24   25 ar
    40   24   26 1
    41   25   39 1
    42   28   29 3
@<TRIPOS>MOLECULE
ZINC39731466
   53    57     0     0     0
SMALL
USER_CHARGES

@<TRIPOS>ATOM
      1 C1         -0.0184    1.5028    0.0103 C.3       1 <0>        -0.1060
      2 C2          0.0021   -0.0041    0.0020 C.ar      1 <0>        -0.1015
      3 C3          0.0057   -0.6887   -1.1989 C.ar      1 <0>        -0.1251
      4 C4          0.0245   -2.0709   -1.2065 C.ar      1 <0>        -0.0902
      5 C5          0.0400   -2.7685   -0.0132 C.ar      1 <0>        -0.0625
      6 C6          0.0373   -2.0839    1.1877 C.ar      1 <0>        -0.1190
      7 C7          0.0229   -0.7016    1.1953 C.ar      1 <0>        -0.1225
      8 C8          0.0595   -4.2753   -0.0215 C.3       1 <0>         0.0659
      9 H1          0.0585   -4.6373   -1.0496 H         1 <0>         0.1006
     10 C9          1.3061   -4.7777    0.6996 C.3       1 <0>        -0.2165
     11 H2          1.3784   -5.8541    0.5442 H         1 <0>         0.1158
     12 C10         1.1710   -4.5250    2.1759 C.2       1 <0>         0.4944
     13 N1          2.1790   -4.0342    2.8670 N.2       1 <0>        -0.6137
     14 C11         3.3104   -3.6380    2.2846 C.2       1 <0>         0.4329
     15 N2          3.4759   -3.6557    0.9674 N.2       1 <0>        -0.6810
     16 C12         2.5528   -4.1439    0.1684 C.2       1 <0>         0.5260
     17 O1          2.7285   -4.0847   -1.0334 O.2       1 <0>        -0.5047
     18 S1          4.6339   -3.0695    3.2992 S.3       1 <0>         0.0137
     19 C13         5.9416   -2.6430    2.1166 C.3       1 <0>        -0.0757
     20 C14         7.1483   -2.1357    2.8633 C.ar      1 <0>        -0.0624
     21 C15         7.2726   -0.7874    3.1417 C.ar      1 <0>        -0.0880
     22 C16         8.3793   -0.3220    3.8266 C.ar      1 <0>        -0.1156
     23 C17         9.3627   -1.2046    4.2335 C.ar      1 <0>        -0.1053
     24 C18         9.2396   -2.5527    3.9557 C.ar      1 <0>        -0.1119
     25 C19         8.1291   -3.0200    3.2751 C.ar      1 <0>        -0.0206
     26 Cl1         7.9706   -4.7142    2.9316 Cl        1 <0>        -0.0573
     27 N3          0.0019   -4.7407    2.7714 N.2       1 <0>        -0.6069
     28 C20        -1.1023   -4.9910    2.0946 C.2       1 <0>         0.3003
     29 C21        -1.1572   -4.8059    0.7080 C.2       1 <0>        -0.3831
     30 C22        -2.2725   -5.0914   -0.0007 C.2       1 <0>         0.3465
     31 O2         -2.2590   -4.9218   -1.3354 O.3       1 <0>        -0.6065
     32 C23        -3.5271   -5.5931    0.6578 C.3       1 <0>        -0.1345
     33 C24        -3.1708   -6.3446    1.9428 C.3       1 <0>        -0.1104
     34 C25        -2.3415   -5.4200    2.8428 C.3       1 <0>        -0.0831
     35 H3          1.0042    1.8801    0.0026 H         1 <0>         0.0639
     36 H4         -0.5455    1.8639   -0.8728 H         1 <0>         0.0608
     37 H5         -0.5286    1.8543    0.9071 H         1 <0>         0.0609
     38 H6         -0.0064   -0.1436   -2.1312 H         1 <0>         0.1148
     39 H7          0.0266   -2.6057   -2.1448 H         1 <0>         0.1193
     40 H8          0.0491   -2.6289    2.1200 H         1 <0>         0.1269
     41 H9          0.0245   -0.1667    2.1335 H         1 <0>         0.1135
     42 H10         6.2152   -3.5283    1.5425 H         1 <0>         0.1102
     43 H11         5.5809   -1.8683    1.4399 H         1 <0>         0.1093
     44 H12         6.5049   -0.0975    2.8238 H         1 <0>         0.1365
     45 H13         8.4761    0.7315    4.0436 H         1 <0>         0.1307
     46 H14        10.2274   -0.8403    4.7683 H         1 <0>         0.1316
     47 H15        10.0080   -3.2419    4.2734 H         1 <0>         0.1343
     48 H16        -4.1728   -4.7487    0.8988 H         1 <0>         0.0884
     49 H17        -4.0497   -6.2656   -0.0225 H         1 <0>         0.0828
     50 H18        -4.0844   -6.6361    2.4610 H         1 <0>         0.0759
     51 H19        -2.5883   -7.2326    1.6973 H         1 <0>         0.0681
     52 H20        -2.0543   -5.9529    3.7492 H         1 <0>         0.0888
     53 H21        -2.9314   -4.5419    3.1055 H         1 <0>         0.0912
@<TRIPOS>BOND
     1    1    2 1
     2    1   35 1
     3    1   36 1
     4    1   37 1
     5    2    7 ar
     6    2    3 ar
     7    3    4 ar
     8    3   38 1
     9    4    5 ar
    10    4   39 1
    11    5    6 ar
    12    5    8 1
    13    6    7 ar
    14    6   40 1
    15    7   41 1
    16    8    9 1
    17    8   29 1
    18    8   10 1
    19   10   11 1
    20   10   16 1
    21   10   12 1
    22   12   13 2
    23   12   27 1
    24   13   14 1
    25   14   15 2
    26   14   18 1
    27   15   16 1
    28   16   17 2
    29   18   19 1
    30   19   20 1
    31   19   42 1
    32   19   43 1
    33   20   25 ar
    34   20   21 ar
    35   21   22 ar
    36   21   44 1
    37   22   23 ar
    38   22   45 1
    39   23   24 ar
    40   23   46 1
    41   24   25 ar
    42   24   47 1
    43   25   26 1
    44   27   28 2
    45   28   34 1
    46   28   29 1
    47   29   30 2
    48   30   31 1
    49   30   32 1
    50   32   33 1
    51   32   48 1
    52   32   49 1
    53   33   34 1
    54   33   50 1
    55   33   51 1
    56   34   52 1
    57   34   53 1
@<TRIPOS>MOLECULE
ZINC05450646
   39    42     0     0     0
SMALL
USER_CHARGES
1-(4-chlorophenyl)-4-hydroxy-3-phenyl-6-(2-thienyl)pyridin-2-one
@<TRIPOS>ATOM
      1 C1          0.6642   -2.6052   -1.1574 C.ar      1 <0>        -0.1534
      2 C2         -0.5927   -2.0349   -1.2539 C.ar      1 <0>        -0.1284
      3 C3         -0.7706   -0.6975   -0.9655 C.ar      1 <0>        -0.1060
      4 C4          0.3204    0.0802   -0.5759 C.ar      1 <0>         0.0821
      5 C5          1.5864   -0.4996   -0.4860 C.ar      1 <0>        -0.1145
      6 C6          1.7500   -1.8395   -0.7716 C.ar      1 <0>        -0.1287
      7 C7          0.1367    1.5156   -0.2650 C.2       1 <0>        -0.4083
      8 C8         -0.6486    1.9073    0.8246 C.2       1 <0>         0.3303
      9 C9         -0.7999    3.2698    1.0980 C.2       1 <0>        -0.1904
     10 C10        -0.1849    4.2030    0.2863 C.2       1 <0>         0.2042
     11 N1          0.5778    3.8051   -0.7831 N.am      1 <0>        -0.4834
     12 C11         0.7458    2.5002   -1.0664 C.2       1 <0>         0.5442
     13 O1          1.4286    2.1688   -2.0222 O.2       1 <0>        -0.5852
     14 C12         1.1904    4.7709   -1.5910 C.ar      1 <0>         0.1483
     15 C13         0.4311    5.5103   -2.4884 C.ar      1 <0>        -0.0959
     16 C14         1.0369    6.4663   -3.2800 C.ar      1 <0>        -0.1013
     17 C15         2.4011    6.6797   -3.1876 C.ar      1 <0>        -0.0322
     18 C16         3.1609    5.9402   -2.2981 C.ar      1 <0>        -0.0996
     19 C17         2.5592    4.9871   -1.5003 C.ar      1 <0>        -0.0851
     20 Cl1         3.1605    7.8775   -4.1887 Cl        1 <0>        -0.0770
     21 C18        -0.3489    5.6332    0.5698 C.2       1 <0>        -0.1280
     22 C19        -1.5062    6.3404    0.8521 C.2       1 <0>        -0.1307
     23 C20        -1.3740    7.6891    1.0848 C.2       1 <0>        -0.1596
     24 C21        -0.1423    8.2552    1.0183 C.2       1 <0>        -0.2211
     25 S1          0.8891    6.9162    0.6329 S.3       1 <0>         0.1271
     26 O2         -1.2495    0.9789    1.6073 O.3       1 <0>        -0.6699
     27 H1          0.7982   -3.6526   -1.3839 H         1 <0>         0.1057
     28 H2         -1.4363   -2.6378   -1.5560 H         1 <0>         0.1074
     29 H3         -1.7522   -0.2535   -1.0409 H         1 <0>         0.1096
     30 H4          2.4356    0.0981   -0.1893 H         1 <0>         0.1070
     31 H5          2.7286   -2.2905   -0.6981 H         1 <0>         0.1067
     32 H6         -1.3989    3.5915    1.9371 H         1 <0>         0.1336
     33 H7         -0.6328    5.3410   -2.5641 H         1 <0>         0.1323
     34 H8          0.4461    7.0449   -3.9746 H         1 <0>         0.1351
     35 H9          4.2254    6.1085   -2.2282 H         1 <0>         0.1365
     36 H10         3.1527    4.4100   -0.8066 H         1 <0>         0.1338
     37 H11        -2.4694    5.8533    0.8908 H         1 <0>         0.1418
     38 H12        -2.2406    8.2916    1.3136 H         1 <0>         0.1316
     39 H13         0.1295    9.2895    1.1688 H         1 <0>         0.1813
@<TRIPOS>BOND
     1    1    6 ar
     2    1    2 ar
     3    1   27 1
     4    2    3 ar
     5    2   28 1
     6    3    4 ar
     7    3   29 1
     8    4    5 ar
     9    4    7 1
    10    5    6 ar
    11    5   30 1
    12    6   31 1
    13    7   12 1
    14    7    8 2
    15    8    9 1
    16    8   26 1
    17    9   10 2
    18    9   32 1
    19   10   11 1
    20   10   21 1
    21   11   12 am
    22   11   14 1
    23   12   13 2
    24   14   19 ar
    25   14   15 ar
    26   15   16 ar
    27   15   33 1
    28   16   17 ar
    29   16   34 1
    30   17   18 ar
    31   17   20 1
    32   18   19 ar
    33   18   35 1
    34   19   36 1
    35   21   25 1
    36   21   22 2
    37   22   23 1
    38   22   37 1
    39   23   24 2
    40   23   38 1
    41   24   25 1
    42   24   39 1
@<TRIPOS>MOLECULE
ZINC20591193
   31    33     0     0     0
SMALL
USER_CHARGES
4-[(1R)-1-(2,4-dichlorophenyl)ethyl]-5-(2-thienyl)-1,2,4-triazole-3-thiol
@<TRIPOS>ATOM
      1 C1          2.3626    4.7693   -1.3122 C.3       1 <0>        -0.1695
      2 C2          2.4388    3.9594   -0.0163 C.3       1 <0>         0.1838
      3 H1          3.3561    3.3533    0.0175 H         1 <0>         0.0980
      4 C3          1.2312    3.0639    0.0881 C.ar      1 <0>        -0.0726
      5 C4         -0.0055    3.5200   -0.3286 C.ar      1 <0>         0.0410
      6 C5         -1.1134    2.6995   -0.2327 C.ar      1 <0>        -0.1255
      7 C6         -0.9842    1.4184    0.2744 C.ar      1 <0>         0.0091
      8 C7          0.2517    0.9638    0.6973 C.ar      1 <0>        -0.1249
      9 C8          1.3604    1.7858    0.6014 C.ar      1 <0>         0.0129
     10 Cl1         2.9133    1.2137    1.1258 Cl        1 <0>        -0.0813
     11 Cl2        -2.3746    0.3851    0.3876 Cl        1 <0>        -0.0863
     12 N1          2.4703    4.8724    1.1290 N.pl3     1 <0>        -0.4823
     13 C9          3.4797    5.7448    1.4707 C.2       1 <0>         0.1828
     14 N2          3.0961    6.3676    2.5634 N.2       1 <0>        -0.2586
     15 N3          1.9347    5.9501    2.9214 N.2       1 <0>        -0.3365
     16 C10         1.5011    5.0406    2.0788 C.2       1 <0>         0.3741
     17 S1         -0.0408    4.1917    2.1598 S.3       1 <0>        -0.7561
     18 C11         4.7473    5.9425    0.7496 C.2       1 <0>        -0.0379
     19 C12         5.6539    6.9666    0.8593 C.2       1 <0>        -0.1443
     20 C13         6.7849    6.9346    0.0748 C.2       1 <0>        -0.1432
     21 C14         6.9631    5.9013   -0.7885 C.2       1 <0>        -0.1937
     22 S2          5.5021    4.9163   -0.5014 S.3       1 <0>         0.0516
     23 H2          3.2440    5.4229   -1.3884 H         1 <0>         0.0713
     24 H3          1.4500    5.3834   -1.3076 H         1 <0>         0.0692
     25 H4          2.3390    4.0838   -2.1721 H         1 <0>         0.0812
     26 H5         -0.1059    4.5180   -0.7290 H         1 <0>         0.1247
     27 H6         -2.0793    3.0564   -0.5581 H         1 <0>         0.1248
     28 H7          0.3521   -0.0341    1.0980 H         1 <0>         0.1283
     29 H8          5.4853    7.7799    1.5496 H         1 <0>         0.1412
     30 H9          7.5189    7.7239    0.1415 H         1 <0>         0.1342
     31 H10         7.7787    5.7219   -1.4734 H         1 <0>         0.1844
@<TRIPOS>BOND
     1    1    2 1
     2    1   23 1
     3    1   24 1
     4    1   25 1
     5    2    3 1
     6    2    4 1
     7    2   12 1
     8    4    9 ar
     9    4    5 ar
    10    5    6 ar
    11    5   26 1
    12    6    7 ar
    13    6   27 1
    14    7    8 ar
    15    7   11 1
    16    8    9 ar
    17    8   28 1
    18    9   10 1
    19   12   16 1
    20   12   13 1
    21   13   18 1
    22   13   14 2
    23   14   15 1
    24   15   16 2
    25   16   17 1
    26   18   22 1
    27   18   19 2
    28   19   20 1
    29   19   29 1
    30   20   21 2
    31   20   30 1
    32   21   22 1
    33   21   31 1
@<TRIPOS>MOLECULE
ZINC02699099
   39    42     0     0     0
SMALL
USER_CHARGES
2-(4-methoxyphenyl)-7-methyl-1,5-dihydrochromeno[2,3-d]pyrimidine-4-thione
@<TRIPOS>ATOM
      1 C1         -0.0129    1.0836    0.0086 C.3       1 <0>        -0.1098
      2 C2         -0.7182    1.5701    1.2484 C.ar      1 <0>        -0.1104
      3 C3          0.0014    1.8039    2.4059 C.ar      1 <0>        -0.0998
      4 C4         -0.6438    2.2493    3.5421 C.ar      1 <0>        -0.1279
      5 C5         -2.0167    2.4643    3.5245 C.ar      1 <0>         0.1123
      6 C6         -2.7346    2.2296    2.3630 C.ar      1 <0>        -0.1249
      7 C7         -2.0827    1.7878    1.2260 C.ar      1 <0>        -0.0868
      8 C8         -4.2216    2.4581    2.3257 C.3       1 <0>        -0.0055
      9 C9         -4.7756    2.5252    3.7214 C.ar      1 <0>        -0.2793
     10 C10        -3.9661    2.7401    4.7908 C.ar      1 <0>         0.3530
     11 N1         -4.5204    2.7924    6.0442 N.ar      1 <0>        -0.5753
     12 C11        -5.8646    2.6325    6.2088 C.ar      1 <0>         0.3814
     13 N2         -6.6565    2.4242    5.1795 N.ar      1 <0>        -0.5433
     14 C12        -6.1618    2.3628    3.9328 C.ar      1 <0>         0.3562
     15 S1         -7.2077    2.0895    2.6052 S.3       1 <0>        -0.7669
     16 C13        -6.4412    2.6942    7.5664 C.ar      1 <0>        -0.0614
     17 C14        -5.6124    2.9097    8.6703 C.ar      1 <0>        -0.0337
     18 C15        -6.1550    2.9729    9.9346 C.ar      1 <0>        -0.2217
     19 C16        -7.5236    2.8109   10.1143 C.ar      1 <0>         0.1334
     20 C17        -8.3506    2.5902    9.0195 C.ar      1 <0>        -0.1626
     21 C18        -7.8165    2.5318    7.7513 C.ar      1 <0>        -0.0295
     22 O1         -8.0537    2.8678   11.3627 O.3       1 <0>        -0.3183
     23 C19        -7.1469    3.0975   12.4428 C.3       1 <0>         0.0241
     24 O2         -2.6377    2.9020    4.6465 O.3       1 <0>        -0.2371
     25 H1          1.0609    0.9697    0.2185 H         1 <0>         0.0628
     26 H2         -0.1526    1.8130   -0.8028 H         1 <0>         0.0676
     27 H3         -0.4322    0.1129   -0.2947 H         1 <0>         0.0678
     28 H4          1.0683    1.6376    2.4212 H         1 <0>         0.1286
     29 H5         -0.0809    2.4313    4.4457 H         1 <0>         0.1320
     30 H6         -2.6419    1.6088    0.3196 H         1 <0>         0.1294
     31 H7         -4.4341    3.4060    1.8097 H         1 <0>         0.0842
     32 H8         -4.7064    1.6307    1.7869 H         1 <0>         0.1037
     33 H9         -4.5481    3.0314    8.5319 H         1 <0>         0.1393
     34 H10        -5.5157    3.1446   10.7880 H         1 <0>         0.1283
     35 H11        -9.4135    2.4648    9.1633 H         1 <0>         0.1328
     36 H12        -8.4600    2.3603    6.9010 H         1 <0>         0.1476
     37 H13        -7.7042    3.1202   13.3909 H         1 <0>         0.0980
     38 H14        -6.6363    4.0604   12.2944 H         1 <0>         0.0559
     39 H15        -6.4021    2.2886   12.4746 H         1 <0>         0.0559
@<TRIPOS>BOND
     1    1    2 1
     2    1   25 1
     3    1   26 1
     4    1   27 1
     5    2    7 ar
     6    2    3 ar
     7    3    4 ar
     8    3   28 1
     9    4    5 ar
    10    4   29 1
    11    5    6 ar
    12    5   24 1
    13    6    7 ar
    14    6    8 1
    15    7   30 1
    16    8   31 1
    17    8   32 1
    18    8    9 1
    19    9   14 ar
    20    9   10 ar
    21   10   24 1
    22   10   11 ar
    23   11   12 ar
    24   12   13 ar
    25   12   16 1
    26   13   14 ar
    27   14   15 1
    28   16   21 ar
    29   16   17 ar
    30   17   18 ar
    31   17   33 1
    32   18   19 ar
    33   18   34 1
    34   19   20 ar
    35   19   22 1
    36   20   21 ar
    37   20   35 1
    38   21   36 1
    39   22   23 1
    40   23   37 1
    41   23   38 1
    42   23   39 1
@<TRIPOS>MOLECULE
ZINC05393258
   41    43     0     0     0
SMALL
USER_CHARGES

@<TRIPOS>ATOM
      1 C1         -0.0187    1.5258    0.0104 C.3       1 <0>        -0.1545
      2 C2          0.0021   -0.0041    0.0020 C.3       1 <0>        -0.1271
      3 C3         -1.4333   -0.5336    0.0129 C.3       1 <0>        -0.1143
      4 C4         -1.4126   -2.0635    0.0045 C.3       1 <0>        -0.0895
      5 H1         -0.8110   -2.4271    0.8375 H         1 <0>         0.0755
      6 C5         -2.8435   -2.6001    0.1278 C.3       1 <0>        -0.1152
      7 C6         -2.7753   -4.1083    0.3579 C.3       1 <0>        -0.0667
      8 C7         -1.9025   -4.7639   -0.6818 C.ar      1 <0>         0.1387
      9 C8         -1.0015   -4.0521   -1.4421 C.ar      1 <0>        -0.1230
     10 C9         -0.2195   -4.7228   -2.3800 C.ar      1 <0>        -0.0764
     11 C10        -0.3726   -6.0880   -2.5268 C.ar      1 <0>        -0.1632
     12 C11        -1.3063   -6.7474   -1.7292 C.ar      1 <0>         0.1648
     13 N1         -2.0278   -6.0734   -0.8476 N.ar      1 <0>        -0.4579
     14 C12        -1.4925   -8.2112   -1.8693 C.ar      1 <0>        -0.0618
     15 C13        -0.7327   -8.9283   -2.7917 C.ar      1 <0>        -0.0813
     16 C14        -0.9096  -10.2904   -2.9186 C.ar      1 <0>        -0.1034
     17 C15        -1.8402  -10.9492   -2.1322 C.ar      1 <0>        -0.0664
     18 C16        -2.5995  -10.2474   -1.2144 C.ar      1 <0>        -0.1249
     19 C17        -2.4274   -8.8797   -1.0724 C.ar      1 <0>         0.1538
     20 O1         -3.1680   -8.1900   -0.1667 O.3       1 <0>        -0.4665
     21 Br1        -2.0737  -12.8168   -2.3152 Br        1 <0>        -0.0403
     22 C18        -0.8224   -2.5629   -1.3130 C.3       1 <0>        -0.0725
     23 H2          1.0039    1.9031    0.0027 H         1 <0>         0.0534
     24 H3         -0.5459    1.8868   -0.8726 H         1 <0>         0.0534
     25 H4         -0.5289    1.8773    0.9072 H         1 <0>         0.0537
     26 H5          0.5123   -0.3556   -0.8948 H         1 <0>         0.0621
     27 H6          0.5293   -0.3651    0.8851 H         1 <0>         0.0611
     28 H7         -1.9435   -0.1821    0.9097 H         1 <0>         0.0658
     29 H8         -1.9605   -0.1726   -0.8702 H         1 <0>         0.0637
     30 H9         -3.3431   -2.1225    0.9706 H         1 <0>         0.0754
     31 H10        -3.3933   -2.3935   -0.7904 H         1 <0>         0.0671
     32 H11        -2.3627   -4.3026    1.3479 H         1 <0>         0.0843
     33 H12        -3.7801   -4.5266    0.2994 H         1 <0>         0.0856
     34 H13         0.4956   -4.1835   -2.9835 H         1 <0>         0.1363
     35 H14         0.2196   -6.6339   -3.2463 H         1 <0>         0.1369
     36 H15        -0.0064   -8.4179   -3.4068 H         1 <0>         0.1402
     37 H16        -0.3205  -10.8452   -3.6339 H         1 <0>         0.1403
     38 H17        -3.3242  -10.7663   -0.6044 H         1 <0>         0.1427
     39 H18        -1.3259   -2.0675   -2.1431 H         1 <0>         0.0797
     40 H19         0.2407   -2.3240   -1.3441 H         1 <0>         0.0784
     41 H20        -4.0035   -7.8523   -0.5172 H         1 <0>         0.3920
@<TRIPOS>BOND
     1    1    2 1
     2    1   23 1
     3    1   24 1
     4    1   25 1
     5    2    3 1
     6    2   26 1
     7    2   27 1
     8    3    4 1
     9    3   28 1
    10    3   29 1
    11    4    5 1
    12    4   22 1
    13    4    6 1
    14    6    7 1
    15    6   30 1
    16    6   31 1
    17    7    8 1
    18    7   32 1
    19    7   33 1
    20    8   13 ar
    21    8    9 ar
    22    9   10 ar
    23    9   22 1
    24   10   11 ar
    25   10   34 1
    26   11   12 ar
    27   11   35 1
    28   12   13 ar
    29   12   14 1
    30   14   19 ar
    31   14   15 ar
    32   15   16 ar
    33   15   36 1
    34   16   17 ar
    35   16   37 1
    36   17   18 ar
    37   17   21 1
    38   18   19 ar
    39   18   38 1
    40   19   20 1
    41   20   41 1
    42   22   39 1
    43   22   40 1
@<TRIPOS>MOLECULE
ZINC59502706
   41    43     0     0     0
SMALL
USER_CHARGES

@<TRIPOS>ATOM
      1 C1          1.0020    1.3276   -0.1605 C.3       1 <0>        -0.1167
      2 C2          0.4916   -0.0881   -0.0796 C.ar      1 <0>        -0.0369
      3 C3          0.1501   -0.6307    1.1450 C.ar      1 <0>        -0.1597
      4 C4         -0.3181   -1.9293    1.2192 C.ar      1 <0>         0.0283
      5 C5         -0.4451   -2.6850    0.0687 C.ar      1 <0>        -0.6394
      6 C6         -0.1044   -2.1420   -1.1560 C.ar      1 <0>         0.0289
      7 C7          0.3597   -0.8421   -1.2307 C.ar      1 <0>        -0.1597
      8 C8         -0.2424   -2.9661   -2.4102 C.3       1 <0>        -0.1350
      9 S1         -1.0407   -4.3406    0.1635 S.o2      1 <0>         2.6244
     10 O1         -1.7839   -4.4364    1.3708 O.2       1 <0>        -1.0038
     11 O2         -1.6059   -4.6421   -1.1050 O.2       1 <0>        -1.0040
     12 N1          0.2783   -5.3261    0.3402 N.2       1 <0>        -1.0080
     13 C9          0.1098   -6.6975    0.4420 C.2       1 <0>         0.4972
     14 N2          1.0204   -7.6418    0.5914 N.2       1 <0>        -0.5844
     15 C10         0.6744   -8.9247    0.6725 C.2       1 <0>         0.1374
     16 C11        -0.6458   -9.2669    0.5997 C.2       1 <0>        -0.2552
     17 S2         -1.3985   -7.6559    0.4138 S.3       1 <0>        -0.2167
     18 C12         1.7117   -9.9714    0.8398 C.ar      1 <0>         0.0047
     19 C13         1.3444  -11.3138    0.9180 C.ar      1 <0>        -0.0994
     20 C14         2.3134  -12.2838    1.0736 C.ar      1 <0>        -0.1135
     21 C15         3.6483  -11.9257    1.1526 C.ar      1 <0>        -0.0429
     22 C16         4.0184  -10.5938    1.0755 C.ar      1 <0>        -0.1147
     23 C17         3.0577   -9.6166    0.9136 C.ar      1 <0>        -0.0762
     24 Cl1         4.8624  -13.1508    1.3496 Cl        1 <0>        -0.0861
     25 C18        -0.6895   -2.5212    2.5544 C.3       1 <0>        -0.1354
     26 H1          0.1621    2.0096   -0.2928 H         1 <0>         0.0728
     27 H2          1.5306    1.5764    0.7597 H         1 <0>         0.0682
     28 H3          1.6824    1.4207   -1.0069 H         1 <0>         0.0682
     29 H4          0.2493   -0.0403    2.0439 H         1 <0>         0.1256
     30 H5          0.6223   -0.4166   -2.1880 H         1 <0>         0.1257
     31 H6         -1.2693   -2.9092   -2.7711 H         1 <0>         0.0888
     32 H7          0.4331   -2.5810   -3.1741 H         1 <0>         0.0644
     33 H8          0.0092   -4.0041   -2.1925 H         1 <0>         0.0914
     34 H9         -1.1082  -10.2418    0.6460 H         1 <0>         0.1762
     35 H10         0.3032  -11.5941    0.8572 H         1 <0>         0.1337
     36 H11         2.0298  -13.3242    1.1343 H         1 <0>         0.1305
     37 H12         5.0611  -10.3196    1.1380 H         1 <0>         0.1305
     38 H13         3.3478   -8.5783    0.8487 H         1 <0>         0.1458
     39 H14        -1.7640   -2.4231    2.7091 H         1 <0>         0.0882
     40 H15        -0.4144   -3.5758    2.5735 H         1 <0>         0.0934
     41 H16        -0.1587   -1.9929    3.3464 H         1 <0>         0.0635
@<TRIPOS>BOND
     1    1    2 1
     2    1   26 1
     3    1   27 1
     4    1   28 1
     5    2    7 ar
     6    2    3 ar
     7    3    4 ar
     8    3   29 1
     9    4    5 ar
    10    4   25 1
    11    5    6 ar
    12    5    9 1
    13    6    7 ar
    14    6    8 1
    15    7   30 1
    16    8   31 1
    17    8   32 1
    18    8   33 1
    19    9   10 2
    20    9   11 2
    21    9   12 1
    22   12   13 1
    23   13   17 1
    24   13   14 2
    25   14   15 1
    26   15   16 2
    27   15   18 1
    28   16   17 1
    29   16   34 1
    30   18   23 ar
    31   18   19 ar
    32   19   20 ar
    33   19   35 1
    34   20   21 ar
    35   20   36 1
    36   21   22 ar
    37   21   24 1
    38   22   23 ar
    39   22   37 1
    40   23   38 1
    41   25   39 1
    42   25   40 1
    43   25   41 1
@<TRIPOS>MOLECULE
ZINC06651661
   35    36     0     0     0
SMALL
USER_CHARGES

@<TRIPOS>ATOM
      1 C1         -0.0187    1.5258    0.0104 C.3       1 <0>        -0.1525
      2 C2          0.0021   -0.0041    0.0020 C.3       1 <0>        -0.1156
      3 C3          0.7182   -0.4975   -1.2568 C.3       1 <0>        -0.0336
      4 H1          1.7103   -0.0491   -1.3098 H         1 <0>         0.0637
      5 C4         -0.0892   -0.0968   -2.4931 C.3       1 <0>        -0.1416
      6 C5          0.8473   -1.9981   -1.2057 C.ar      1 <0>        -0.1865
      7 C6         -0.2871   -2.7862   -1.1406 C.ar      1 <0>        -0.0710
      8 C7         -0.1724   -4.1617   -1.0937 C.ar      1 <0>        -0.1803
      9 C8          1.0843   -4.7533   -1.1120 C.ar      1 <0>         0.2761
     10 C9          2.2217   -3.9586   -1.1774 C.ar      1 <0>        -0.2638
     11 C10         2.0997   -2.5840   -1.2298 C.ar      1 <0>        -0.0608
     12 N1          1.2039   -6.1441   -1.0642 N.2       1 <0>        -1.0867
     13 S1          2.7030   -6.8475   -1.0860 S.o2      1 <0>         2.6262
     14 O1          3.2642   -6.5679   -2.3612 O.2       1 <0>        -1.0182
     15 O2          3.3438   -6.4755    0.1265 O.2       1 <0>        -1.0199
     16 C11         2.4613   -8.5913   -1.0136 C.2       1 <0>        -0.6588
     17 C12         2.3161   -9.4754   -2.0302 C.2       1 <0>        -0.0405
     18 C13         2.1358  -10.8141   -1.7344 C.2       1 <0>        -0.1599
     19 C14         2.1097  -11.2020   -0.4347 C.2       1 <0>        -0.1179
     20 S2          2.3521   -9.6523    0.4180 S.3       1 <0>         0.1998
     21 Cl1         1.9015  -12.7932    0.2273 Cl        1 <0>         0.0123
     22 H2          1.0039    1.9031    0.0027 H         1 <0>         0.0498
     23 H3         -0.5459    1.8868   -0.8726 H         1 <0>         0.0533
     24 H4         -0.5289    1.8773    0.9072 H         1 <0>         0.0473
     25 H5          0.5293   -0.3651    0.8851 H         1 <0>         0.0607
     26 H6         -1.0205   -0.3814    0.0098 H         1 <0>         0.0601
     27 H7          0.4210   -0.4484   -3.3899 H         1 <0>         0.0517
     28 H8         -1.0813   -0.5452   -2.4401 H         1 <0>         0.0527
     29 H9         -0.1826    0.9885   -2.5300 H         1 <0>         0.0474
     30 H10        -1.2638   -2.3256   -1.1261 H         1 <0>         0.1029
     31 H11        -1.0588   -4.7767   -1.0425 H         1 <0>         0.1107
     32 H12         3.2003   -4.4154   -1.1914 H         1 <0>         0.0950
     33 H13         2.9834   -1.9657   -1.2851 H         1 <0>         0.1000
     34 H14         2.3406   -9.1395   -3.0563 H         1 <0>         0.1525
     35 H15         2.0173  -11.5395   -2.5257 H         1 <0>         0.1452
@<TRIPOS>BOND
     1    1    2 1
     2    1   22 1
     3    1   23 1
     4    1   24 1
     5    2    3 1
     6    2   25 1
     7    2   26 1
     8    3    4 1
     9    3    5 1
    10    3    6 1
    11    5   27 1
    12    5   28 1
    13    5   29 1
    14    6   11 ar
    15    6    7 ar
    16    7    8 ar
    17    7   30 1
    18    8    9 ar
    19    8   31 1
    20    9   10 ar
    21    9   12 1
    22   10   11 ar
    23   10   32 1
    24   11   33 1
    25   12   13 1
    26   13   14 2
    27   13   15 2
    28   13   16 1
    29   16   20 1
    30   16   17 2
    31   17   18 1
    32   17   34 1
    33   18   19 2
    34   18   35 1
    35   19   20 1
    36   19   21 1
@<TRIPOS>MOLECULE
ZINC08397336
   54    58     0     0     0
SMALL
USER_CHARGES
4-[bis(2-methyl-1H-indol-3-yl)methyl]-2-chloro-6-methoxy-phenol
@<TRIPOS>ATOM
      1 C1          2.5942    7.3381   -2.0611 C.3       1 <0>        -0.0967
      2 C2          1.1976    7.8988   -1.9838 C.2       1 <0>         0.0904
      3 C3          0.1820    7.3463   -1.3017 C.2       1 <0>        -0.1540
      4 C4         -0.9861    8.2076   -1.5003 C.ar      1 <0>        -0.0850
      5 C5         -2.3072    8.1701   -1.0504 C.ar      1 <0>        -0.0795
      6 C6         -3.1775    9.1571   -1.4185 C.ar      1 <0>        -0.1446
      7 C7         -2.7572   10.2004   -2.2320 C.ar      1 <0>        -0.0981
      8 C8         -1.4568   10.2599   -2.6828 C.ar      1 <0>        -0.1304
      9 C9         -0.5538    9.2657   -2.3205 C.ar      1 <0>         0.0962
     10 N1          0.7767    9.0463   -2.5989 N.pl3     1 <0>        -0.5918
     11 H1          1.3328    9.6198   -3.1492 H         1 <0>         0.4136
     12 C10         0.2324    6.0771   -0.4907 C.3       1 <0>         0.1071
     13 C11        -1.1513    5.4882   -0.3929 C.ar      1 <0>        -0.0199
     14 C12        -1.6878    4.8049   -1.4686 C.ar      1 <0>        -0.1822
     15 C13        -2.9600    4.2630   -1.3810 C.ar      1 <0>         0.1179
     16 C14        -3.6978    4.4127   -0.2108 C.ar      1 <0>         0.0775
     17 C15        -3.1520    5.0930    0.8667 C.ar      1 <0>        -0.0275
     18 C16        -1.8810    5.6320    0.7721 C.ar      1 <0>        -0.1325
     19 Cl1        -4.0655    5.2751    2.3316 Cl        1 <0>        -0.0481
     20 O1         -4.9493    3.8873   -0.1221 O.3       1 <0>        -0.4742
     21 O2         -3.4887    3.5912   -2.4386 O.3       1 <0>        -0.3032
     22 C17        -2.6766    3.4818   -3.6093 C.3       1 <0>         0.0247
     23 C18         0.7464    6.3846    0.8921 C.2       1 <0>        -0.1599
     24 C19         1.7595    5.7695    1.5226 C.2       1 <0>         0.0865
     25 N2          1.9395    6.3190    2.7627 N.pl3     1 <0>        -0.5920
     26 H2          2.6123    6.0401    3.4034 H         1 <0>         0.4141
     27 C20         1.0234    7.3266    2.9657 C.ar      1 <0>         0.0962
     28 C21         0.2395    7.4156    1.8009 C.ar      1 <0>        -0.0885
     29 C22        -0.7874    8.3583    1.7228 C.ar      1 <0>        -0.0771
     30 C23        -1.0190    9.1979    2.7757 C.ar      1 <0>        -0.1468
     31 C24        -0.2448    9.1177    3.9251 C.ar      1 <0>        -0.0964
     32 C25         0.7700    8.1913    4.0254 C.ar      1 <0>        -0.1335
     33 C26         2.5776    4.6413    0.9491 C.3       1 <0>        -0.0991
     34 H3          2.6466    6.6028   -2.8641 H         1 <0>         0.0783
     35 H4          3.2992    8.1451   -2.2609 H         1 <0>         0.0676
     36 H5          2.8471    6.8608   -1.1143 H         1 <0>         0.0845
     37 H6         -2.6413    7.3615   -0.4171 H         1 <0>         0.1254
     38 H7         -4.2006    9.1252   -1.0740 H         1 <0>         0.1209
     39 H8         -3.4569   10.9730   -2.5148 H         1 <0>         0.1238
     40 H9         -1.1395   11.0755   -3.3157 H         1 <0>         0.1176
     41 H10         0.8979    5.3626   -0.9751 H         1 <0>         0.0945
     42 H11        -1.1151    4.6938   -2.3775 H         1 <0>         0.1367
     43 H12        -1.4585    6.1664    1.6101 H         1 <0>         0.1542
     44 H13        -4.9724    2.9807    0.2136 H         1 <0>         0.3866
     45 H14        -3.2161    2.9242   -4.3750 H         1 <0>         0.1026
     46 H15        -1.7523    2.9593   -3.3629 H         1 <0>         0.0566
     47 H16        -2.4420    4.4784   -3.9832 H         1 <0>         0.0576
     48 H17        -1.3938    8.4265    0.8317 H         1 <0>         0.1348
     49 H18        -1.8105    9.9300    2.7130 H         1 <0>         0.1198
     50 H19        -0.4398    9.7884    4.7488 H         1 <0>         0.1231
     51 H20         1.3670    8.1369    4.9238 H         1 <0>         0.1175
     52 H21         3.4773    5.0446    0.4844 H         1 <0>         0.0776
     53 H22         2.8579    3.9537    1.7471 H         1 <0>         0.0712
     54 H23         1.9894    4.1096    0.2012 H         1 <0>         0.0856
@<TRIPOS>BOND
     1    1    2 1
     2    1   34 1
     3    1   35 1
     4    1   36 1
     5    2   10 1
     6    2    3 2
     7    3    4 1
     8    3   12 1
     9    4    9 ar
    10    4    5 ar
    11    5    6 ar
    12    5   37 1
    13    6    7 ar
    14    6   38 1
    15    7    8 ar
    16    7   39 1
    17    8    9 ar
    18    8   40 1
    19    9   10 1
    20   10   11 1
    21   12   13 1
    22   12   23 1
    23   12   41 1
    24   13   18 ar
    25   13   14 ar
    26   14   15 ar
    27   14   42 1
    28   15   16 ar
    29   15   21 1
    30   16   17 ar
    31   16   20 1
    32   17   18 ar
    33   17   19 1
    34   18   43 1
    35   20   44 1
    36   21   22 1
    37   22   45 1
    38   22   46 1
    39   22   47 1
    40   23   28 1
    41   23   24 2
    42   24   25 1
    43   24   33 1
    44   25   26 1
    45   25   27 1
    46   27   32 ar
    47   27   28 ar
    48   28   29 ar
    49   29   30 ar
    50   29   48 1
    51   30   31 ar
    52   30   49 1
    53   31   32 ar
    54   31   50 1
    55   32   51 1
    56   33   52 1
    57   33   53 1
    58   33   54 1
@<TRIPOS>MOLECULE
ZINC13389320
   44    47     0     0     0
SMALL
USER_CHARGES
(3aR,4R,9bR)-4-(2,3-dimethoxyphenyl)-8-iodo-3a,4,5,9b-tetrahydro-3H-cyclopenta[c]quinoline
@<TRIPOS>ATOM
      1 C1          2.2590    3.7163    3.2175 C.3       1 <0>         0.0240
      2 O1          1.2808    2.9329    2.5307 O.3       1 <0>        -0.3050
      3 C2          0.2039    3.5930    2.0268 C.ar      1 <0>         0.1162
      4 C3          0.0943    4.9653    2.1848 C.ar      1 <0>        -0.1966
      5 C4         -1.0039    5.6339    1.6768 C.ar      1 <0>        -0.0781
      6 C5         -1.9917    4.9373    1.0057 C.ar      1 <0>        -0.1382
      7 C6         -1.8856    3.5690    0.8396 C.ar      1 <0>        -0.0742
      8 C7         -0.7875    2.8927    1.3463 C.ar      1 <0>         0.0761
      9 O2         -0.6816    1.5467    1.1837 O.3       1 <0>        -0.3183
     10 C8         -0.0127    1.0858    0.0080 C.3       1 <0>         0.0314
     11 C9         -2.9645    2.8129    0.1079 C.3       1 <0>         0.2132
     12 H1         -2.5250    2.0127   -0.4875 H         1 <0>         0.0855
     13 C10        -3.9667    2.2423    1.0952 C.3       1 <0>        -0.0945
     14 H2         -4.4618    3.0317    1.6608 H         1 <0>         0.0932
     15 C11        -3.4807    1.1122    2.0124 C.3       1 <0>        -0.0829
     16 C12        -4.7755    0.3342    2.2553 C.2       1 <0>        -0.1597
     17 C13        -5.6149    0.5232    1.2444 C.2       1 <0>        -0.1557
     18 C14        -4.9583    1.3982    0.2394 C.3       1 <0>        -0.0245
     19 H3         -4.3674    0.7667   -0.4241 H         1 <0>         0.0832
     20 C15        -5.7318    2.3310   -0.6087 C.ar      1 <0>        -0.1345
     21 C16        -7.0554    2.1174   -0.9271 C.ar      1 <0>        -0.0323
     22 C17        -7.7320    3.0125   -1.7356 C.ar      1 <0>        -0.1508
     23 C18        -7.0789    4.1281   -2.2290 C.ar      1 <0>        -0.0390
     24 C19        -5.7554    4.3531   -1.9116 C.ar      1 <0>        -0.1914
     25 C20        -5.0686    3.4636   -1.0941 C.ar      1 <0>         0.2390
     26 N1         -3.7362    3.7322   -0.7566 N.pl3     1 <0>        -0.7422
     27 I1         -9.7447    2.6799   -2.2126 I         1 <0>        -0.0535
     28 H4          3.0626    3.0686    3.5678 H         1 <0>         0.1033
     29 H5          2.6661    4.4657    2.5387 H         1 <0>         0.0562
     30 H6          1.7943    4.2122    4.0696 H         1 <0>         0.0576
     31 H7          0.8645    5.5118    2.7086 H         1 <0>         0.1346
     32 H8         -1.0902    6.7029    1.8042 H         1 <0>         0.1311
     33 H9         -2.8482    5.4632    0.6106 H         1 <0>         0.1306
     34 H10         0.0021   -0.0041    0.0020 H         1 <0>         0.0965
     35 H11         1.0099    1.4631    0.0003 H         1 <0>         0.0485
     36 H12        -0.5399    1.4469   -0.8751 H         1 <0>         0.0433
     37 H13        -2.7404    0.4910    1.5082 H         1 <0>         0.0925
     38 H14        -3.0834    1.5105    2.9460 H         1 <0>         0.0723
     39 H15        -4.9770   -0.2783    3.1217 H         1 <0>         0.1296
     40 H16        -6.6095    0.1097    1.1657 H         1 <0>         0.1302
     41 H17        -7.5667    1.2467   -0.5438 H         1 <0>         0.1270
     42 H18        -7.6065    4.8242   -2.8643 H         1 <0>         0.1273
     43 H19        -5.2504    5.2251   -2.3003 H         1 <0>         0.1272
     44 H20        -3.3118    4.5357   -1.0959 H         1 <0>         0.4018
@<TRIPOS>BOND
     1    1    2 1
     2    1   28 1
     3    1   29 1
     4    1   30 1
     5    2    3 1
     6    3    8 ar
     7    3    4 ar
     8    4    5 ar
     9    4   31 1
    10    5    6 ar
    11    5   32 1
    12    6    7 ar
    13    6   33 1
    14    7    8 ar
    15    7   11 1
    16    8    9 1
    17    9   10 1
    18   10   34 1
    19   10   35 1
    20   10   36 1
    21   11   12 1
    22   11   26 1
    23   11   13 1
    24   13   14 1
    25   13   18 1
    26   13   15 1
    27   15   16 1
    28   15   37 1
    29   15   38 1
    30   16   17 2
    31   16   39 1
    32   17   18 1
    33   17   40 1
    34   18   19 1
    35   18   20 1
    36   20   25 ar
    37   20   21 ar
    38   21   22 ar
    39   21   41 1
    40   22   23 ar
    41   22   27 1
    42   23   24 ar
    43   23   42 1
    44   24   25 ar
    45   24   43 1
    46   25   26 1
    47   26   44 1
@<TRIPOS>MOLECULE
ZINC20998620
   43    47     0     0     0
SMALL
USER_CHARGES
[(1S)-1-(2-chloro-6-fluoro-phenyl)-1,3,4,9-tetrahydropyrido[3,4-b]indol-2-yl]-thiazol-4-yl-methanone
@<TRIPOS>ATOM
      1 C1          0.2973    1.4705    0.5332 C.ar      1 <0>        -0.1497
      2 C2          1.5078    2.1078    0.2969 C.ar      1 <0>        -0.1009
      3 C3          2.6486    1.3773    0.0477 C.ar      1 <0>        -0.1305
      4 C4          2.5906   -0.0124    0.0323 C.ar      1 <0>         0.1021
      5 C5          1.3610   -0.6546    0.2736 C.ar      1 <0>        -0.0988
      6 C6          0.2171    0.1069    0.5231 C.ar      1 <0>        -0.0716
      7 C7          1.6352   -2.0866    0.1925 C.2       1 <0>        -0.1687
      8 C8          2.9460   -2.2267   -0.0833 C.2       1 <0>         0.1000
      9 N1          3.5309   -0.9969   -0.1812 N.pl3     1 <0>        -0.5854
     10 H1          4.5752   -0.7235   -0.3924 H         1 <0>         0.4368
     11 C9          3.6225   -3.5694   -0.2545 C.3       1 <0>         0.1826
     12 H2          4.5483   -3.6330    0.3361 H         1 <0>         0.2093
     13 N2          2.6772   -4.6010    0.2061 N.am      1 <0>        -0.5853
     14 C10         1.2718   -4.4990   -0.2149 C.3       1 <0>         0.1092
     15 C11         0.6642   -3.2231    0.3815 C.3       1 <0>        -0.0584
     16 C12         3.0900   -5.6132    0.9945 C.2       1 <0>         0.6078
     17 O1          2.3318   -6.5271    1.2579 O.2       1 <0>        -0.5256
     18 C13         4.4592   -5.6128    1.5369 C.2       1 <0>         0.0047
     19 C14         4.9595   -6.7008    2.2057 C.2       1 <0>        -0.1792
     20 S1          6.5585   -6.1575    2.6038 S.3       1 <0>         0.1584
     21 C15         6.4703   -4.5811    1.8869 C.2       1 <0>         0.0459
     22 N3          5.2604   -4.5564    1.3912 N.2       1 <0>        -0.4770
     23 C16         3.9586   -3.7922   -1.7065 C.ar      1 <0>        -0.1229
     24 C17         3.7976   -2.7646   -2.6204 C.ar      1 <0>         0.1182
     25 C18         4.1067   -2.9706   -3.9541 C.ar      1 <0>        -0.1488
     26 C19         4.5757   -4.2017   -4.3727 C.ar      1 <0>        -0.0759
     27 C20         4.7368   -5.2273   -3.4605 C.ar      1 <0>        -0.1204
     28 C21         4.4333   -5.0215   -2.1261 C.ar      1 <0>        -0.0011
     29 Cl1         4.6424   -6.3085   -0.9799 Cl        1 <0>        -0.0391
     30 F1          3.3388   -1.5617   -2.2109 F         1 <0>        -0.1117
     31 H3         -0.5892    2.0577    0.7221 H         1 <0>         0.1195
     32 H4          1.5554    3.1867    0.3086 H         1 <0>         0.1224
     33 H5          3.5856    1.8822   -0.1356 H         1 <0>         0.1172
     34 H6         -0.7286   -0.3811    0.7072 H         1 <0>         0.1173
     35 H7          1.2201   -4.4567   -1.3129 H         1 <0>         0.0708
     36 H8          0.7166   -5.3779    0.1447 H         1 <0>         0.1026
     37 H9          0.4740   -3.3682    1.4552 H         1 <0>         0.0743
     38 H10        -0.2808   -2.9869   -0.1296 H         1 <0>         0.0843
     39 H11         4.4843   -7.6454    2.4259 H         1 <0>         0.2090
     40 H12         7.2280   -3.8121    1.8542 H         1 <0>         0.2304
     41 H13         3.9810   -2.1696   -4.6675 H         1 <0>         0.1427
     42 H14         4.8167   -4.3620   -5.4132 H         1 <0>         0.1444
     43 H15         5.1036   -6.1886   -3.7885 H         1 <0>         0.1413
@<TRIPOS>BOND
     1    1    6 ar
     2    1    2 ar
     3    1   31 1
     4    2    3 ar
     5    2   32 1
     6    3    4 ar
     7    3   33 1
     8    4    9 1
     9    4    5 ar
    10    5    6 ar
    11    5    7 1
    12    6   34 1
    13    7   15 1
    14    7    8 2
    15    8    9 1
    16    8   11 1
    17    9   10 1
    18   11   12 1
    19   11   13 1
    20   11   23 1
    21   13   14 1
    22   13   16 am
    23   14   15 1
    24   14   35 1
    25   14   36 1
    26   15   37 1
    27   15   38 1
    28   16   17 2
    29   16   18 1
    30   18   22 1
    31   18   19 2
    32   19   20 1
    33   19   39 1
    34   20   21 1
    35   21   22 2
    36   21   40 1
    37   23   28 ar
    38   23   24 ar
    39   24   25 ar
    40   24   30 1
    41   25   26 ar
    42   25   41 1
    43   26   27 ar
    44   26   42 1
    45   27   28 ar
    46   27   43 1
    47   28   29 1
@<TRIPOS>MOLECULE
ZINC39499664
   47    50     0     0     0
SMALL
USER_CHARGES

@<TRIPOS>ATOM
      1 C1         -0.7283    0.4836    1.3103 C.3       1 <0>        -0.1462
      2 C2         -0.4021   -0.8942    0.7305 C.3       1 <0>         0.0152
      3 O1          0.3085   -0.7375   -0.4993 O.3       1 <0>        -0.0999
      4 N1          0.6599   -1.9600   -1.1213 N.pl3     1 <0>        -0.5024
      5 C3          1.8996   -2.7130   -0.9011 C.3       1 <0>         0.1679
      6 C4          1.8212   -3.9383   -1.7777 C.ar      1 <0>        -0.0983
      7 C5          2.6852   -4.9926   -1.9830 C.ar      1 <0>        -0.0625
      8 C6          2.3514   -6.0036   -2.8648 C.ar      1 <0>        -0.0671
      9 C7          1.1371   -5.9604   -3.5511 C.ar      1 <0>        -0.0064
     10 C8          0.2614   -4.8996   -3.3482 C.ar      1 <0>        -0.0680
     11 C9          0.6019   -3.8810   -2.4572 C.ar      1 <0>        -0.0521
     12 C10        -0.1114   -2.6577   -2.0411 C.2       1 <0>         0.2026
     13 C11        -1.3268   -2.2741   -2.4888 C.2       1 <0>        -0.2096
     14 C12        -2.1857   -3.2344   -3.2004 C.ar      1 <0>        -0.0236
     15 C13        -2.3244   -4.5413   -2.7227 C.ar      1 <0>        -0.1153
     16 C14        -3.1309   -5.4353   -3.3950 C.ar      1 <0>        -0.1200
     17 C15        -3.8021   -5.0419   -4.5396 C.ar      1 <0>        -0.1241
     18 C16        -3.6699   -3.7502   -5.0187 C.ar      1 <0>        -0.1168
     19 C17        -2.8716   -2.8430   -4.3543 C.ar      1 <0>        -0.1136
     20 C18         0.7807   -7.0459   -4.4973 C.ar      1 <0>        -0.0893
     21 C19         0.6559   -6.7749   -5.8579 C.ar      1 <0>        -0.0794
     22 C20         0.3246   -7.7882   -6.7343 C.ar      1 <0>        -0.1278
     23 C21         0.1157   -9.0737   -6.2664 C.ar      1 <0>        -0.0931
     24 C22         0.2365   -9.3533   -4.9186 C.ar      1 <0>        -0.1445
     25 C23         0.5743   -8.3465   -4.0282 C.ar      1 <0>         0.1376
     26 O2          0.6989   -8.6213   -2.7037 O.3       1 <0>        -0.4849
     27 I1          3.6704   -7.6021   -3.1718 I         1 <0>        -0.0121
     28 H1          0.1974    1.0294    1.4926 H         1 <0>         0.0670
     29 H2         -1.3443    1.0389    0.6030 H         1 <0>         0.0678
     30 H3         -1.2703    0.3640    2.2484 H         1 <0>         0.0812
     31 H4          0.2138   -1.4495    1.4379 H         1 <0>         0.0589
     32 H5         -1.3278   -1.4401    0.5482 H         1 <0>         0.0628
     33 H6          2.7600   -2.1064   -1.1835 H         1 <0>         0.0925
     34 H7          1.9769   -3.0071    0.1456 H         1 <0>         0.0871
     35 H8          3.6259   -5.0287   -1.4537 H         1 <0>         0.1369
     36 H9         -0.6787   -4.8640   -3.8785 H         1 <0>         0.1515
     37 H10        -1.6683   -1.2628   -2.3247 H         1 <0>         0.1294
     38 H11        -1.8010   -4.8499   -1.8298 H         1 <0>         0.1173
     39 H12        -3.2388   -6.4451   -3.0275 H         1 <0>         0.1192
     40 H13        -4.4320   -5.7467   -5.0620 H         1 <0>         0.1196
     41 H14        -4.1965   -3.4508   -5.9127 H         1 <0>         0.1216
     42 H15        -2.7733   -1.8340   -4.7266 H         1 <0>         0.1227
     43 H16         0.8178   -5.7728   -6.2266 H         1 <0>         0.1260
     44 H17         0.2277   -7.5771   -7.7890 H         1 <0>         0.1278
     45 H18        -0.1432   -9.8619   -6.9578 H         1 <0>         0.1277
     46 H19         0.0716  -10.3584   -4.5592 H         1 <0>         0.1310
     47 H20        -0.1222   -8.5224   -2.2026 H         1 <0>         0.3859
@<TRIPOS>BOND
     1    1    2 1
     2    1   28 1
     3    1   29 1
     4    1   30 1
     5    2    3 1
     6    2   31 1
     7    2   32 1
     8    3    4 1
     9    4   12 1
    10    4    5 1
    11    5    6 1
    12    5   33 1
    13    5   34 1
    14    6   11 ar
    15    6    7 ar
    16    7    8 ar
    17    7   35 1
    18    8    9 ar
    19    8   27 1
    20    9   10 ar
    21    9   20 1
    22   10   11 ar
    23   10   36 1
    24   11   12 1
    25   12   13 2
    26   13   14 1
    27   13   37 1
    28   14   19 ar
    29   14   15 ar
    30   15   16 ar
    31   15   38 1
    32   16   17 ar
    33   16   39 1
    34   17   18 ar
    35   17   40 1
    36   18   19 ar
    37   18   41 1
    38   19   42 1
    39   20   25 ar
    40   20   21 ar
    41   21   22 ar
    42   21   43 1
    43   22   23 ar
    44   22   44 1
    45   23   24 ar
    46   23   45 1
    47   24   25 ar
    48   24   46 1
    49   25   26 1
    50   26   47 1
@<TRIPOS>MOLECULE
ZINC58929076
   38    41     0     0     0
SMALL
USER_CHARGES

@<TRIPOS>ATOM
      1 C1         -0.0167    1.3778    0.0096 C.ar      1 <0>        -0.1139
      2 C2          1.1711    2.0855    0.0021 C.ar      1 <0>        -0.0961
      3 C3          2.3776    1.4114   -0.0135 C.ar      1 <0>        -0.0964
      4 C4          2.3973    0.0292   -0.0216 C.ar      1 <0>        -0.0543
      5 C5          1.2095   -0.6792   -0.0136 C.ar      1 <0>        -0.0925
      6 C6          0.0021   -0.0041    0.0020 C.ar      1 <0>        -0.0871
      7 Br1         1.2358   -2.5700   -0.0253 Br        1 <0>        -0.0507
      8 C7          3.6719    2.1834   -0.0223 C.3       1 <0>         0.2037
      9 H1          3.4672    3.1965   -0.3684 H         1 <0>         0.1007
     10 C8          4.1981    2.2565    1.3960 C.3       1 <0>        -0.0948
     11 H2          4.7864    3.1615    1.5479 H         1 <0>         0.0998
     12 C9          2.9830    2.2065    2.3645 C.3       1 <0>        -0.0967
     13 C10         2.8260    0.7370    2.6876 C.2       1 <0>        -0.1540
     14 C11         3.9163    0.0743    2.3931 C.2       1 <0>        -0.1338
     15 C12         4.9764    1.0161    1.8296 C.3       1 <0>        -0.0260
     16 H3          5.6498    1.2991    2.6387 H         1 <0>         0.1209
     17 C13         5.7940    0.3894    0.7514 C.ar      1 <0>        -0.0741
     18 C14         6.7824   -0.5215    1.0979 C.ar      1 <0>         0.0026
     19 C15         7.5662   -1.1099    0.1266 C.ar      1 <0>        -0.1018
     20 C16         7.3751   -0.7952   -1.2066 C.ar      1 <0>        -0.0603
     21 C17         6.3912    0.1053   -1.5638 C.ar      1 <0>        -0.0726
     22 C18         5.5943    0.6936   -0.5859 C.ar      1 <0>         0.2360
     23 N1          4.5771    1.5524   -0.9573 N.pl3     1 <0>        -0.7146
     24 Cl1         6.1483    0.5053   -3.2355 Cl        1 <0>        -0.0408
     25 N2          6.9977   -0.8642    2.5216 N.pl3     1 <0>         0.0331
     26 O1          7.8571   -1.6570    2.8292 O.2       1 <0>        -0.1588
     27 O2          6.3141   -0.3515    3.3769 O.3       1 <0>        -0.1451
     28 H4         -0.9592    1.9049    0.0260 H         1 <0>         0.1329
     29 H5          1.1560    3.1654    0.0080 H         1 <0>         0.1306
     30 H6          3.3402   -0.4974   -0.0346 H         1 <0>         0.1254
     31 H7         -0.9257   -0.5568    0.0083 H         1 <0>         0.1316
     32 H8          3.1932    2.7758    3.2699 H         1 <0>         0.0848
     33 H9          2.0875    2.5868    1.8729 H         1 <0>         0.0863
     34 H10         1.9341    0.2938    3.1052 H         1 <0>         0.1275
     35 H11         4.0489   -0.9887    2.5301 H         1 <0>         0.1205
     36 H12         8.3314   -1.8180    0.4083 H         1 <0>         0.1605
     37 H13         7.9933   -1.2518   -1.9654 H         1 <0>         0.1585
     38 H14         4.4823    1.7580   -1.9005 H         1 <0>         0.4091
@<TRIPOS>BOND
     1    1    6 ar
     2    1    2 ar
     3    1   28 1
     4    2    3 ar
     5    2   29 1
     6    3    4 ar
     7    3    8 1
     8    4    5 ar
     9    4   30 1
    10    5    6 ar
    11    5    7 1
    12    6   31 1
    13    8    9 1
    14    8   23 1
    15    8   10 1
    16   10   11 1
    17   10   15 1
    18   10   12 1
    19   12   13 1
    20   12   32 1
    21   12   33 1
    22   13   14 2
    23   13   34 1
    24   14   15 1
    25   14   35 1
    26   15   16 1
    27   15   17 1
    28   17   22 ar
    29   17   18 ar
    30   18   19 ar
    31   18   25 1
    32   19   20 ar
    33   19   36 1
    34   20   21 ar
    35   20   37 1
    36   21   22 ar
    37   21   24 1
    38   22   23 1
    39   23   38 1
    40   25   26 2
    41   25   27 1
@<TRIPOS>MOLECULE
ZINC06057818
   38    40     0     0     0
SMALL
USER_CHARGES
3-[(2-chloro-6-fluoro-phenyl)methyl]-1-[(3-chlorophenyl)methyl]-4-hydroxy-pyridin-2-one
@<TRIPOS>ATOM
      1 C1          1.1746    1.7831    0.0004 C.ar      1 <0>        -0.1148
      2 C2          1.1560    3.1656    0.0081 C.ar      1 <0>        -0.1043
      3 C3         -0.0498    3.8410    0.0228 C.ar      1 <0>        -0.0853
      4 C4         -1.2380    3.1346    0.0308 C.ar      1 <0>        -0.0759
      5 C5         -1.2201    1.7515    0.0174 C.ar      1 <0>        -0.0364
      6 C6         -0.0126    1.0758    0.0080 C.ar      1 <0>        -0.1137
      7 Cl1        -2.7119    0.8636    0.0190 Cl        1 <0>        -0.0757
      8 C7         -0.0692    5.3479    0.0306 C.3       1 <0>         0.1411
      9 N1         -0.0884    5.8432   -1.3480 N.am      1 <0>        -0.5206
     10 C8          1.0857    6.0898   -1.9861 C.2       1 <0>         0.1047
     11 C9          1.1014    6.5421   -3.2583 C.2       1 <0>        -0.2515
     12 C10        -0.1131    6.7731   -3.9346 C.2       1 <0>         0.3196
     13 C11        -1.3037    6.5249   -3.2771 C.2       1 <0>        -0.4345
     14 C12        -1.2688    6.0519   -1.9601 C.2       1 <0>         0.5277
     15 O1         -2.3116    5.8277   -1.3654 O.2       1 <0>        -0.5861
     16 C13        -2.6215    6.7600   -3.9692 C.3       1 <0>         0.0298
     17 C14        -3.1070    5.4692   -4.5769 C.ar      1 <0>        -0.0783
     18 C15        -2.7547    5.1389   -5.8746 C.ar      1 <0>         0.1181
     19 C16        -3.1966    3.9501   -6.4297 C.ar      1 <0>        -0.1701
     20 C17        -3.9982    3.0989   -5.6924 C.ar      1 <0>        -0.1029
     21 C18        -4.3550    3.4315   -4.3993 C.ar      1 <0>        -0.1400
     22 C19        -3.9094    4.6167   -3.8409 C.ar      1 <0>        -0.0094
     23 Cl2        -4.3582    5.0335   -2.2165 Cl        1 <0>        -0.0206
     24 F1         -1.9754    5.9736   -6.5966 F         1 <0>        -0.1109
     25 O2         -0.1141    7.2308   -5.2094 O.3       1 <0>        -0.6834
     26 H1          2.1171    1.2559   -0.0118 H         1 <0>         0.1286
     27 H2          2.0841    3.7180    0.0022 H         1 <0>         0.1252
     28 H3         -2.1802    3.6625    0.0423 H         1 <0>         0.1444
     29 H4          0.0021   -0.0041    0.0020 H         1 <0>         0.1283
     30 H5         -0.9671    5.7003    0.5594 H         1 <0>         0.1015
     31 H6          0.8289    5.7235    0.5427 H         1 <0>         0.0834
     32 H7          2.0188    5.9180   -1.4702 H         1 <0>         0.1306
     33 H8          2.0419    6.7299   -3.7547 H         1 <0>         0.1180
     34 H9         -3.3599    7.1219   -3.2386 H         1 <0>         0.0637
     35 H10        -2.4906    7.5119   -4.7614 H         1 <0>         0.0682
     36 H11        -2.9185    3.6897   -7.4403 H         1 <0>         0.1283
     37 H12        -4.3461    2.1736   -6.1272 H         1 <0>         0.1274
     38 H13        -4.9816    2.7659   -3.8242 H         1 <0>         0.1255
@<TRIPOS>BOND
     1    1    6 ar
     2    1    2 ar
     3    1   26 1
     4    2    3 ar
     5    2   27 1
     6    3    4 ar
     7    3    8 1
     8    4    5 ar
     9    4   28 1
    10    5    6 ar
    11    5    7 1
    12    6   29 1
    13    8    9 1
    14    8   30 1
    15    8   31 1
    16    9   14 am
    17    9   10 1
    18   10   11 2
    19   10   32 1
    20   11   12 1
    21   11   33 1
    22   12   13 2
    23   12   25 1
    24   13   14 1
    25   13   16 1
    26   14   15 2
    27   16   17 1
    28   16   34 1
    29   16   35 1
    30   17   22 ar
    31   17   18 ar
    32   18   19 ar
    33   18   24 1
    34   19   20 ar
    35   19   36 1
    36   20   21 ar
    37   20   37 1
    38   21   22 ar
    39   21   38 1
    40   22   23 1
@<TRIPOS>MOLECULE
ZINC01041804
   27    29     0     0     0
SMALL
USER_CHARGES

@<TRIPOS>ATOM
      1 C1          0.6639    0.2572    1.1943 C.ar      1 <0>        -0.0710
      2 C2          1.8501    0.9649    1.1843 C.ar      1 <0>        -0.0886
      3 C3          2.3795    1.4137   -0.0125 C.ar      1 <0>        -0.0257
      4 C4          1.7216    1.1546   -1.2037 C.ar      1 <0>        -0.0184
      5 C5          0.5347    0.4470   -1.1986 C.ar      1 <0>        -0.0675
      6 C6          0.0021   -0.0041    0.0020 C.ar      1 <0>         0.1802
      7 N1         -1.2006   -0.7219    0.0101 N.pl3     1 <0>        -0.4674
      8 C7         -1.1737   -2.0713   -0.0945 C.2       1 <0>         0.5085
      9 O1         -0.0068   -2.7315   -0.2056 O.3       1 <0>        -0.5931
     10 C8         -2.3976   -2.7655   -0.0835 C.ar      1 <0>        -0.2411
     11 C9         -2.4556   -4.1631   -0.1868 C.ar      1 <0>         0.0076
     12 C10        -3.6666   -4.7884   -0.1708 C.ar      1 <0>        -0.1859
     13 C11        -4.8480   -4.0578   -0.0536 C.ar      1 <0>         0.0341
     14 C12        -4.8270   -2.6965    0.0484 C.ar      1 <0>        -0.1369
     15 C13        -3.6008   -2.0194    0.0365 C.ar      1 <0>         0.2332
     16 N2         -3.5344   -0.6838    0.1352 N.2       1 <0>        -0.5497
     17 C14        -2.3652   -0.0625    0.1271 C.2       1 <0>         0.5038
     18 S1         -2.3369    1.6438    0.2636 S.2       1 <0>        -0.6809
     19 Cl1        -6.3703   -4.8921   -0.0378 Cl        1 <0>        -0.0750
     20 Cl2         2.3884    1.7196   -2.7037 Cl        1 <0>        -0.0514
     21 Cl3         3.8702    2.3033   -0.0214 Cl        1 <0>        -0.0557
     22 H1          0.2537   -0.0965    2.1287 H         1 <0>         0.1367
     23 H2          2.3647    1.1685    2.1118 H         1 <0>         0.1473
     24 H3          0.0217    0.2450   -2.1273 H         1 <0>         0.1396
     25 H4         -1.5470   -4.7397   -0.2787 H         1 <0>         0.1406
     26 H5         -3.7115   -5.8646   -0.2503 H         1 <0>         0.1330
     27 H6         -5.7509   -2.1446    0.1382 H         1 <0>         0.1438
@<TRIPOS>BOND
     1    1    6 ar
     2    1    2 ar
     3    1   22 1
     4    2    3 ar
     5    2   23 1
     6    3    4 ar
     7    3   21 1
     8    4    5 ar
     9    4   20 1
    10    5    6 ar
    11    5   24 1
    12    6    7 1
    13    7   17 1
    14    7    8 1
    15    8    9 1
    16    8   10 2
    17   10   15 ar
    18   10   11 ar
    19   11   12 ar
    20   11   25 1
    21   12   13 ar
    22   12   26 1
    23   13   14 ar
    24   13   19 1
    25   14   15 ar
    26   14   27 1
    27   15   16 2
    28   16   17 1
    29   17   18 2
@<TRIPOS>MOLECULE
ZINC37385718
   29    30     0     0     0
SMALL
USER_CHARGES

@<TRIPOS>ATOM
      1 C1         -0.0184    1.5028    0.0103 C.3       1 <0>        -0.1228
      2 C2          0.0021   -0.0041    0.0020 C.ar      1 <0>        -0.0836
      3 C3          0.0058   -0.6888   -1.1989 C.ar      1 <0>        -0.0179
      4 C4          0.0250   -2.0708   -1.2066 C.ar      1 <0>        -0.5977
      5 C5          0.0405   -2.7691   -0.0134 C.ar      1 <0>        -0.0242
      6 C6          0.0368   -2.0854    1.1876 C.ar      1 <0>        -0.1125
      7 C7          0.0229   -0.7020    1.1958 C.ar      1 <0>        -0.0558
      8 Br1         0.0250    0.2341    2.8388 Br        1 <0>        -0.0514
      9 S1          0.0292   -2.9430   -2.7376 S.o2      1 <0>         2.6042
     10 O1         -0.5023   -4.2337   -2.4712 O.2       1 <0>        -1.0215
     11 O2         -0.5390   -2.0698   -3.7040 O.2       1 <0>        -1.0218
     12 N1          1.6121   -3.1634   -3.1713 N.2       1 <0>        -1.0803
     13 C8          1.9249   -3.8336   -4.3569 C.ar      1 <0>         0.2958
     14 C9          0.9088   -4.3105   -5.1755 C.ar      1 <0>        -0.2513
     15 C10         1.2201   -4.9726   -6.3467 C.ar      1 <0>        -0.0403
     16 C11         2.5430   -5.1619   -6.7057 C.ar      1 <0>        -0.1313
     17 C12         3.5583   -4.6882   -5.8918 C.ar      1 <0>         0.0232
     18 C13         3.2519   -4.0189   -4.7217 C.ar      1 <0>        -0.1641
     19 Cl1         5.2168   -4.9286   -6.3449 Cl        1 <0>        -0.0819
     20 Cl2         2.9306   -5.9952   -8.1785 Cl        1 <0>        -0.0929
     21 H1          1.0042    1.8801    0.0026 H         1 <0>         0.0786
     22 H2         -0.5455    1.8639   -0.8728 H         1 <0>         0.0746
     23 H3         -0.5286    1.8543    0.9071 H         1 <0>         0.0752
     24 H4         -0.0067   -0.1438   -2.1312 H         1 <0>         0.1462
     25 H5          0.0552   -3.8490   -0.0199 H         1 <0>         0.1465
     26 H6          0.0489   -2.6310    2.1197 H         1 <0>         0.1377
     27 H7         -0.1240   -4.1639   -4.8958 H         1 <0>         0.1116
     28 H8          0.4302   -5.3434   -6.9830 H         1 <0>         0.1243
     29 H9          4.0436   -3.6452   -4.0894 H         1 <0>         0.1334
@<TRIPOS>BOND
     1    1    2 1
     2    1   21 1
     3    1   22 1
     4    1   23 1
     5    2    7 ar
     6    2    3 ar
     7    3    4 ar
     8    3   24 1
     9    4    5 ar
    10    4    9 1
    11    5    6 ar
    12    5   25 1
    13    6    7 ar
    14    6   26 1
    15    7    8 1
    16    9   10 2
    17    9   11 2
    18    9   12 1
    19   12   13 1
    20   13   18 ar
    21   13   14 ar
    22   14   15 ar
    23   14   27 1
    24   15   16 ar
    25   15   28 1
    26   16   17 ar
    27   16   20 1
    28   17   18 ar
    29   17   19 1
    30   18   29 1
@<TRIPOS>MOLECULE
ZINC48606399
   26    28     0     0     0
SMALL
USER_CHARGES

@<TRIPOS>ATOM
      1 C1         -0.0166    1.3753    0.0096 C.ar      1 <0>        -0.1520
      2 C2          1.1700    2.0874    0.0021 C.ar      1 <0>        -0.0817
      3 C3          2.3819    1.4227   -0.0131 C.ar      1 <0>        -0.1774
      4 C4          2.4146    0.0401   -0.0208 C.ar      1 <0>         0.1497
      5 C5          1.2201   -0.6825   -0.0133 C.ar      1 <0>        -0.0698
      6 C6          0.0021   -0.0041    0.0020 C.ar      1 <0>        -0.0426
      7 C7          1.2465   -2.1642   -0.0220 C.ar      1 <0>         0.4121
      8 N1          2.4272   -2.7821   -0.0316 N.ar      1 <0>        -0.6115
      9 C8          2.5150   -4.1011   -0.0392 C.ar      1 <0>         0.4780
     10 O1          3.7204   -4.7156   -0.0484 O.3       1 <0>        -0.6482
     11 C9          1.3168   -4.8547   -0.0370 C.ar      1 <0>        -0.2324
     12 C10         1.3208   -6.2542   -0.0440 C.ar      1 <0>         0.0299
     13 C11         0.1355   -6.9305   -0.0411 C.ar      1 <0>        -0.1598
     14 C12        -1.0783   -6.2470   -0.0316 C.ar      1 <0>        -0.0218
     15 C13        -1.1169   -4.8840   -0.0245 C.ar      1 <0>        -0.1079
     16 C14         0.0834   -4.1569   -0.0268 C.ar      1 <0>         0.2326
     17 N2          0.0998   -2.8177   -0.0146 N.ar      1 <0>        -0.5905
     18 Br1        -2.7774   -3.9793   -0.0111 Br        1 <0>        -0.0449
     19 Br2         0.1408   -8.8215   -0.0506 Br        1 <0>        -0.0668
     20 F1          3.5992   -0.6094   -0.0361 F         1 <0>        -0.1055
     21 H1         -0.9599    1.9009    0.0260 H         1 <0>         0.1279
     22 H2          1.1491    3.1672    0.0078 H         1 <0>         0.1279
     23 H3          3.3046    1.9839   -0.0192 H         1 <0>         0.1337
     24 H4         -0.9253   -0.5576    0.0079 H         1 <0>         0.1465
     25 H5          2.2555   -6.7953   -0.0521 H         1 <0>         0.1400
     26 H6         -2.0028   -6.8052   -0.0302 H         1 <0>         0.1345
@<TRIPOS>BOND
     1    1    6 ar
     2    1    2 ar
     3    1   21 1
     4    2    3 ar
     5    2   22 1
     6    3    4 ar
     7    3   23 1
     8    4    5 ar
     9    4   20 1
    10    5    6 ar
    11    5    7 1
    12    6   24 1
    13    7   17 ar
    14    7    8 ar
    15    8    9 ar
    16    9   10 1
    17    9   11 ar
    18   11   16 ar
    19   11   12 ar
    20   12   13 ar
    21   12   25 1
    22   13   14 ar
    23   13   19 1
    24   14   15 ar
    25   14   26 1
    26   15   16 ar
    27   15   18 1
    28   16   17 ar
@<TRIPOS>MOLECULE
ZINC13786961
   38    41     0     0     0
SMALL
USER_CHARGES

@<TRIPOS>ATOM
      1 C1         -1.7131    1.4484   -0.2026 C.3       1 <0>         0.0751
      2 N1         -1.6152   -0.0133   -0.1898 N.pl3     1 <0>        -0.4778
      3 C2         -1.3174   -0.7783   -1.2697 C.2       1 <0>         0.0914
      4 C3         -1.3079   -2.0980   -0.9107 C.2       1 <0>        -0.1604
      5 C4         -1.6315   -2.1412    0.5282 C.ar      1 <0>        -0.0827
      6 C5         -1.8073   -0.8054    0.9239 C.ar      1 <0>         0.0900
      7 C6         -2.1202   -0.5224    2.2491 C.ar      1 <0>        -0.1274
      8 C7         -2.2511   -1.5491    3.1592 C.ar      1 <0>        -0.1047
      9 C8         -2.0735   -2.8676    2.7674 C.ar      1 <0>        -0.1459
     10 C9         -1.7719   -3.1687    1.4566 C.ar      1 <0>        -0.0704
     11 C10        -1.0321   -3.2402   -1.7809 C.2       1 <0>         0.0385
     12 C11        -0.7470   -3.0401   -3.0973 C.2       1 <0>        -0.2108
     13 C12        -0.4449   -4.0208   -4.1595 C.2       1 <0>         0.5345
     14 O1         -0.4191   -5.2219   -3.9377 O.2       1 <0>        -0.5382
     15 N2         -0.2057   -3.5321   -5.3571 N.2       1 <0>        -0.7106
     16 C13        -0.2309   -2.2336   -5.6110 C.2       1 <0>         0.4510
     17 S1         -0.6409   -1.5163   -4.0276 S.3       1 <0>        -0.1438
     18 N3         -0.0018   -1.5936   -6.8032 N.2       1 <0>        -0.5788
     19 C14         0.1038   -2.3336   -7.9851 C.ar      1 <0>         0.1829
     20 C15        -0.4828   -3.5895   -8.0745 C.ar      1 <0>        -0.1555
     21 C16        -0.3768   -4.3180   -9.2429 C.ar      1 <0>        -0.0732
     22 C17         0.3132   -3.7982  -10.3237 C.ar      1 <0>        -0.1392
     23 C18         0.8990   -2.5476  -10.2374 C.ar      1 <0>        -0.0770
     24 C19         0.7906   -1.8117   -9.0738 C.ar      1 <0>        -0.1422
     25 Br1         0.4566   -4.7991  -11.9216 Br        1 <0>        -0.0877
     26 H1         -0.7362    1.8798    0.0159 H         1 <0>         0.0718
     27 H2         -2.0458    1.7816   -1.1856 H         1 <0>         0.0871
     28 H3         -2.4300    1.7711    0.5524 H         1 <0>         0.0812
     29 H4         -1.1180   -0.4023   -2.2623 H         1 <0>         0.1834
     30 H5         -2.2603    0.5009    2.5648 H         1 <0>         0.1169
     31 H6         -2.4938   -1.3247    4.1874 H         1 <0>         0.1229
     32 H7         -2.1790   -3.6624    3.4910 H         1 <0>         0.1223
     33 H8         -1.6324   -4.1961    1.1541 H         1 <0>         0.1251
     34 H9         -1.0545   -4.2426   -1.3795 H         1 <0>         0.1451
     35 H10        -1.0209   -3.9960   -7.2309 H         1 <0>         0.1456
     36 H11        -0.8327   -5.2945   -9.3130 H         1 <0>         0.1176
     37 H12         1.4376   -2.1446  -11.0823 H         1 <0>         0.1207
     38 H13         1.2436   -0.8335   -9.0087 H         1 <0>         0.1233
@<TRIPOS>BOND
     1    1    2 1
     2    1   26 1
     3    1   27 1
     4    1   28 1
     5    2    6 1
     6    2    3 1
     7    3    4 2
     8    3   29 1
     9    4    5 1
    10    4   11 1
    11    5   10 ar
    12    5    6 ar
    13    6    7 ar
    14    7    8 ar
    15    7   30 1
    16    8    9 ar
    17    8   31 1
    18    9   10 ar
    19    9   32 1
    20   10   33 1
    21   11   12 2
    22   11   34 1
    23   12   17 1
    24   12   13 1
    25   13   14 2
    26   13   15 1
    27   15   16 2
    28   16   17 1
    29   16   18 1
    30   18   19 1
    31   19   24 ar
    32   19   20 ar
    33   20   21 ar
    34   20   35 1
    35   21   22 ar
    36   21   36 1
    37   22   23 ar
    38   22   25 1
    39   23   24 ar
    40   23   37 1
    41   24   38 1
@<TRIPOS>MOLECULE
ZINC19873011
   42    46     0     0     0
SMALL
USER_CHARGES

@<TRIPOS>ATOM
      1 C1          0.0031    1.3638    0.2929 C.ar      1 <0>        -0.0331
      2 C2          1.1888    2.0662    0.2837 C.ar      1 <0>        -0.1615
      3 C3          2.3789    1.4196   -0.0130 C.ar      1 <0>         0.1170
      4 C4          2.3847    0.0635   -0.3023 C.ar      1 <0>        -0.1583
      5 C5          1.2057   -0.6502   -0.2969 C.ar      1 <0>        -0.0702
      6 C6          0.0021   -0.0041    0.0020 C.ar      1 <0>        -0.0936
      7 C7         -1.2606   -0.7604    0.0100 C.2       1 <0>         0.3217
      8 C8         -1.1206   -2.2331   -0.1104 C.3       1 <0>        -0.1331
      9 C9         -2.1096   -2.9884    0.7391 C.3       1 <0>        -0.0524
     10 C10        -1.6721   -4.4200    0.8977 C.ar      1 <0>        -0.1186
     11 C11        -1.5101   -5.4220   -0.0343 C.ar      1 <0>        -0.0312
     12 C12        -1.0839   -6.6593    0.4404 C.ar      1 <0>        -0.0604
     13 C13        -0.8366   -6.8669    1.7833 C.ar      1 <0>        -0.0630
     14 C14        -0.9988   -5.8619    2.7240 C.ar      1 <0>        -0.1220
     15 C15        -1.4259   -4.6162    2.2592 C.ar      1 <0>         0.1678
     16 N1         -1.6665   -3.4508    2.9639 N.am      1 <0>        -0.6486
     17 C16        -2.0697   -2.4475    2.1617 C.2       1 <0>         0.5294
     18 O1         -2.3499   -1.3196    2.5087 O.2       1 <0>        -0.4631
     19 Cl1        -0.8584   -7.9677   -0.6781 Cl        1 <0>        -0.0570
     20 S1         -3.7844   -2.9123    0.1099 S.3       1 <0>        -0.0171
     21 C17        -4.3932   -1.2928    0.3569 C.ar      1 <0>        -0.1402
     22 C18        -5.7633   -1.1702    0.6236 C.ar      1 <0>        -0.0725
     23 C19        -6.3559    0.0552    0.8139 C.ar      1 <0>        -0.0966
     24 C20        -5.5878    1.2065    0.7343 C.ar      1 <0>        -0.0228
     25 C21        -4.2428    1.1115    0.4814 C.ar      1 <0>        -0.0751
     26 C22        -3.6091   -0.1399    0.3008 C.ar      1 <0>         0.2118
     27 N2         -2.2901   -0.0756    0.1213 N.2       1 <0>        -0.5622
     28 Cl2        -6.3254    2.7627    0.9534 Cl        1 <0>        -0.0565
     29 F1          3.5378    2.1139   -0.0208 F         1 <0>        -0.1355
     30 H1         -0.9226    1.8677    0.5285 H         1 <0>         0.1449
     31 H2          1.1909    3.1227    0.5078 H         1 <0>         0.1403
     32 H3          3.3150   -0.4344   -0.5326 H         1 <0>         0.1412
     33 H4          1.2114   -1.7063   -0.5231 H         1 <0>         0.1393
     34 H5         -1.2656   -2.5155   -1.1531 H         1 <0>         0.1209
     35 H6         -1.7048   -5.2553   -1.0834 H         1 <0>         0.1530
     36 H7         -0.5072   -7.8420    2.1104 H         1 <0>         0.1446
     37 H8         -0.8031   -6.0349    3.7720 H         1 <0>         0.1508
     38 H9         -1.5577   -3.3663    3.9241 H         1 <0>         0.4233
     39 H10        -6.3696   -2.0621    0.6816 H         1 <0>         0.1391
     40 H11        -7.4133    0.1208    1.0236 H         1 <0>         0.1449
     41 H12        -3.6535    2.0144    0.4186 H         1 <0>         0.1428
     42 H13        -0.1117   -2.5156    0.1904 H         1 <0>         0.1118
@<TRIPOS>BOND
     1    1    6 ar
     2    1    2 ar
     3    1   30 1
     4    2    3 ar
     5    2   31 1
     6    3    4 ar
     7    3   29 1
     8    4    5 ar
     9    4   32 1
    10    5    6 ar
    11    5   33 1
    12    6    7 1
    13    7   27 2
    14    7    8 1
    15    8    9 1
    16    8   34 1
    17    8   42 1
    18    9   17 1
    19    9   10 1
    20    9   20 1
    21   10   15 ar
    22   10   11 ar
    23   11   12 ar
    24   11   35 1
    25   12   13 ar
    26   12   19 1
    27   13   14 ar
    28   13   36 1
    29   14   15 ar
    30   14   37 1
    31   15   16 1
    32   16   17 am
    33   16   38 1
    34   17   18 2
    35   20   21 1
    36   21   26 ar
    37   21   22 ar
    38   22   23 ar
    39   22   39 1
    40   23   24 ar
    41   23   40 1
    42   24   25 ar
    43   24   28 1
    44   25   26 ar
    45   25   41 1
    46   26   27 1
@<TRIPOS>MOLECULE
ZINC12466183
   35    37     0     0     0
SMALL
USER_CHARGES
3-(2,4-dichlorophenyl)-4-[[(E)-3-phenylprop-2-enylidene]amino]-1H-1,2,4-triazole-5-thione
@<TRIPOS>ATOM
      1 C1          6.0269    3.3134   -0.0381 C.ar      1 <0>        -0.1138
      2 C2          6.0499    1.9296   -0.0453 C.ar      1 <0>        -0.1262
      3 C3          4.8695    1.2169   -0.0379 C.ar      1 <0>        -0.1010
      4 C4          3.6471    1.8959   -0.0226 C.ar      1 <0>        -0.0677
      5 C5          3.6322    3.2942   -0.0207 C.ar      1 <0>        -0.0953
      6 C6          4.8212    3.9927   -0.0229 C.ar      1 <0>        -0.1183
      7 C7          2.3826    1.1427   -0.0146 C.2       1 <0>        -0.0477
      8 C8          1.2053    1.8012    0.0002 C.2       1 <0>        -0.1755
      9 C9         -0.0126    1.0758    0.0080 C.2       1 <0>         0.1596
     10 N1         -1.1496    1.7118    0.0168 N.2       1 <0>        -0.2393
     11 N2         -1.1686    3.1127    0.0245 N.pl3     1 <0>        -0.3703
     12 C10        -1.1798    3.9161    1.1488 C.2       1 <0>         0.1882
     13 N3         -1.1940    5.1631    0.7664 N.2       1 <0>        -0.2699
     14 N4         -1.2010    5.1871   -0.6349 N.2       1 <0>        -0.3708
     15 C11        -1.1849    3.9083   -1.0634 C.2       1 <0>         0.3984
     16 S1         -1.1858    3.3892   -2.6948 S.3       1 <0>        -0.7567
     17 C12        -1.1730    3.4419    2.5500 C.ar      1 <0>         0.0232
     18 C13        -1.1595    2.0743    2.8266 C.ar      1 <0>        -0.0965
     19 C14        -1.1484    1.6379    4.1349 C.ar      1 <0>        -0.1023
     20 C15        -1.1612    2.5536    5.1739 C.ar      1 <0>        -0.0279
     21 C16        -1.1799    3.9116    4.9068 C.ar      1 <0>        -0.1030
     22 C17        -1.1859    4.3609    3.6010 C.ar      1 <0>        -0.0057
     23 Cl1        -1.2088    6.0643    3.2670 Cl        1 <0>        -0.0178
     24 Cl2        -1.1532    1.9959    6.8179 Cl        1 <0>        -0.0658
     25 H1          6.9548    3.8661   -0.0439 H         1 <0>         0.1216
     26 H2          6.9947    1.4067   -0.0571 H         1 <0>         0.1229
     27 H3          4.8890    0.1371   -0.0436 H         1 <0>         0.1257
     28 H4          2.6921    3.8257   -0.0138 H         1 <0>         0.1240
     29 H5          4.8114    5.0726   -0.0170 H         1 <0>         0.1245
     30 H6          2.3976    0.0428   -0.0207 H         1 <0>         0.1343
     31 H7          1.1903    2.9011    0.0062 H         1 <0>         0.1260
     32 H8          0.0024   -0.0241    0.0066 H         1 <0>         0.1868
     33 H9         -1.1540    1.3588    2.0176 H         1 <0>         0.1495
     34 H10        -1.1335    0.5796    4.3497 H         1 <0>         0.1410
     35 H11        -1.1902    4.6211    5.7211 H         1 <0>         0.1459
@<TRIPOS>BOND
     1    1    6 ar
     2    1    2 ar
     3    1   25 1
     4    2    3 ar
     5    2   26 1
     6    3    4 ar
     7    3   27 1
     8    4    5 ar
     9    4    7 1
    10    5    6 ar
    11    5   28 1
    12    6   29 1
    13    7    8 2
    14    7   30 1
    15    8    9 1
    16    8   31 1
    17    9   10 2
    18    9   32 1
    19   10   11 1
    20   11   15 1
    21   11   12 1
    22   12   13 2
    23   12   17 1
    24   13   14 1
    25   14   15 2
    26   15   16 1
    27   17   22 ar
    28   17   18 ar
    29   18   19 ar
    30   18   33 1
    31   19   20 ar
    32   19   34 1
    33   20   21 ar
    34   20   24 1
    35   21   22 ar
    36   21   35 1
    37   22   23 1
@<TRIPOS>MOLECULE
ZINC37385842
   26    27     0     0     0
SMALL
USER_CHARGES

@<TRIPOS>ATOM
      1 C1         -0.0167    1.3792    0.0096 C.ar      1 <0>        -0.1919
      2 C2          1.1698    2.0901    0.0021 C.ar      1 <0>        -0.1029
      3 C3          2.3787    1.4197   -0.0135 C.ar      1 <0>         0.0351
      4 C4          2.4005    0.0287   -0.0212 C.ar      1 <0>         0.2671
      5 C5          1.2080   -0.6810   -0.0132 C.ar      1 <0>        -0.2381
      6 C6          0.0021   -0.0041    0.0020 C.ar      1 <0>         0.0200
      7 Cl1        -1.4900   -0.8913    0.0121 Cl        1 <0>        -0.0976
      8 N1          3.6215   -0.6528   -0.0375 N.2       1 <0>        -1.0689
      9 S1          3.6454   -2.3086   -0.0466 S.o2      1 <0>         2.5955
     10 O1          3.1134   -2.7294    1.2020 O.2       1 <0>        -0.9990
     11 O2          3.0877   -2.7160   -1.2885 O.2       1 <0>        -0.9990
     12 C7          5.3359   -2.8051   -0.0667 C.ar      1 <0>        -0.6035
     13 C8          5.9888   -2.9881   -1.2725 C.ar      1 <0>         0.0649
     14 C9          7.3162   -3.3774   -1.2882 C.ar      1 <0>        -0.1101
     15 C10         7.9905   -3.5838   -0.0983 C.ar      1 <0>        -0.0339
     16 C11         7.3378   -3.4009    1.1073 C.ar      1 <0>        -0.1101
     17 C12         6.0119   -3.0065    1.1233 C.ar      1 <0>         0.0648
     18 Cl2         5.1948   -2.7700    2.6366 Cl        1 <0>         0.0001
     19 Br1         9.8048   -4.1166   -0.1199 Br        1 <0>        -0.0264
     20 Cl3         5.1424   -2.7296   -2.7660 Cl        1 <0>         0.0000
     21 F1          3.5373    2.1145   -0.0217 F         1 <0>        -0.1407
     22 H1         -0.9598    1.9052    0.0260 H         1 <0>         0.1235
     23 H2          1.1518    3.1699    0.0081 H         1 <0>         0.1280
     24 H3          1.2216   -1.7609   -0.0195 H         1 <0>         0.1172
     25 H4          7.8259   -3.5206   -2.2295 H         1 <0>         0.1529
     26 H5          7.8645   -3.5621    2.0363 H         1 <0>         0.1529
@<TRIPOS>BOND
     1    1    6 ar
     2    1    2 ar
     3    1   22 1
     4    2    3 ar
     5    2   23 1
     6    3    4 ar
     7    3   21 1
     8    4    5 ar
     9    4    8 1
    10    5    6 ar
    11    5   24 1
    12    6    7 1
    13    8    9 1
    14    9   10 2
    15    9   11 2
    16    9   12 1
    17   12   17 ar
    18   12   13 ar
    19   13   14 ar
    20   13   20 1
    21   14   15 ar
    22   14   25 1
    23   15   16 ar
    24   15   19 1
    25   16   17 ar
    26   16   26 1
    27   17   18 1
@<TRIPOS>MOLECULE
ZINC13211144
   36    39     0     0     0
SMALL
USER_CHARGES

@<TRIPOS>ATOM
      1 C1         -0.0184    1.5028    0.0103 C.3       1 <0>        -0.0947
      2 C2          0.0021   -0.0041    0.0020 C.ar      1 <0>         0.1339
      3 C3          0.0054   -0.6756   -1.2096 C.ar      1 <0>        -0.1714
      4 C4          0.0242   -2.0623   -1.2204 C.ar      1 <0>        -0.0135
      5 C5          0.0391   -2.7274   -0.0037 C.ar      1 <0>        -0.0308
      6 C6          0.0347   -1.9851    1.1908 C.ar      1 <0>         0.2175
      7 N1          0.0218   -0.6546    1.1463 N.ar      1 <0>        -0.4579
      8 N2          0.0517   -2.8785    2.2115 N.2       1 <0>        -0.5642
      9 C7          0.0660   -4.0994    1.7319 C.2       1 <0>         0.2034
     10 N3          0.0589   -4.0613    0.3667 N.2       1 <0>        -0.5533
     11 S1          0.0900   -5.5690    2.7038 S.3       1 <0>        -0.0248
     12 C8          0.0887   -4.9641    4.4140 C.3       1 <0>        -0.0658
     13 C9          0.1086   -6.1360    5.3612 C.ar      1 <0>        -0.0489
     14 C10        -1.0590   -6.6877    5.7917 C.ar      1 <0>        -0.1012
     15 C11        -1.0605   -7.7714    6.6675 C.ar      1 <0>        -0.1115
     16 C12         0.1057   -8.3097    7.1184 C.ar      1 <0>        -0.1095
     17 C13         1.3309   -7.7670    6.6960 C.ar      1 <0>        -0.0510
     18 C14         1.3325   -6.6685    5.8002 C.ar      1 <0>        -0.0381
     19 C15         2.5583   -6.1296    5.3731 C.ar      1 <0>        -0.0952
     20 C16         3.7240   -6.6716    5.8194 C.ar      1 <0>        -0.1202
     21 C17         3.7226   -7.7559    6.6952 C.ar      1 <0>        -0.1151
     22 C18         2.5551   -8.2954    7.1404 C.ar      1 <0>        -0.1121
     23 Br1        -0.0161    0.2904   -2.8351 Br        1 <0>        -0.0756
     24 H1          1.0042    1.8801    0.0026 H         1 <0>         0.0678
     25 H2         -0.5455    1.8639   -0.8728 H         1 <0>         0.0725
     26 H3         -0.5286    1.8543    0.9071 H         1 <0>         0.0683
     27 H4          0.0268   -2.6095   -2.1515 H         1 <0>         0.1209
     28 H5          0.9710   -4.3464    4.5816 H         1 <0>         0.0974
     29 H6         -0.8088   -4.3708    4.5888 H         1 <0>         0.0983
     30 H7         -1.9983   -6.2791    5.4495 H         1 <0>         0.1273
     31 H8         -2.0009   -8.1904    6.9937 H         1 <0>         0.1238
     32 H9          0.0892   -9.1492    7.7976 H         1 <0>         0.1251
     33 H10         2.5749   -5.2899    4.6941 H         1 <0>         0.1317
     34 H11         4.6646   -6.2555    5.4897 H         1 <0>         0.1222
     35 H12         4.6619   -8.1673    7.0338 H         1 <0>         0.1202
     36 H13         2.5694   -9.1350    7.8196 H         1 <0>         0.1243
@<TRIPOS>BOND
     1    1    2 1
     2    1   24 1
     3    1   25 1
     4    1   26 1
     5    2    7 ar
     6    2    3 ar
     7    3    4 ar
     8    3   23 1
     9    4    5 ar
    10    4   27 1
    11    5   10 1
    12    5    6 ar
    13    6    7 ar
    14    6    8 1
    15    8    9 2
    16    9   10 1
    17    9   11 1
    18   11   12 1
    19   12   13 1
    20   12   28 1
    21   12   29 1
    22   13   18 ar
    23   13   14 ar
    24   14   15 ar
    25   14   30 1
    26   15   16 ar
    27   15   31 1
    28   16   17 ar
    29   16   32 1
    30   17   22 ar
    31   17   18 ar
    32   18   19 ar
    33   19   20 ar
    34   19   33 1
    35   20   21 ar
    36   20   34 1
    37   21   22 ar
    38   21   35 1
    39   22   36 1
@<TRIPOS>MOLECULE
ZINC59946862
   42    44     0     0     0
SMALL
USER_CHARGES

@<TRIPOS>ATOM
      1 C1         -0.0184    1.5028    0.0103 C.3       1 <0>        -0.1159
      2 C2          0.0021   -0.0041    0.0020 C.ar      1 <0>        -0.0520
      3 C3          0.0057   -0.6887   -1.1989 C.ar      1 <0>        -0.1475
      4 C4          0.0245   -2.0709   -1.2065 C.ar      1 <0>        -0.0185
      5 C5          0.0400   -2.7685   -0.0132 C.ar      1 <0>        -0.6129
      6 C6          0.0373   -2.0839    1.1877 C.ar      1 <0>        -0.0178
      7 C7          0.0229   -0.7016    1.1953 C.ar      1 <0>        -0.1471
      8 S1          0.0628   -4.5303   -0.0229 S.o2      1 <0>         2.5888
      9 O1         -0.4759   -4.9503    1.2232 O.2       1 <0>        -1.0285
     10 O2         -0.4897   -4.9367   -1.2674 O.2       1 <0>        -1.0285
     11 N1          1.6509   -4.9994   -0.0343 N.2       1 <0>        -1.0059
     12 C8          1.9765   -6.3514   -0.0434 C.ar      1 <0>         0.3303
     13 C9          0.9729   -7.3107   -0.0489 C.ar      1 <0>        -0.2600
     14 C10         1.2979   -8.6523   -0.0580 C.ar      1 <0>        -0.0161
     15 C11         2.6252   -9.0538   -0.0617 C.ar      1 <0>        -0.1967
     16 C12         3.6360   -8.1168   -0.0564 C.ar      1 <0>        -0.0059
     17 C13         3.3228   -6.7534   -0.0531 C.ar      1 <0>        -0.1609
     18 C14         4.3948   -5.7484   -0.0536 C.2       1 <0>         0.2240
     19 N2          4.0980   -4.4784   -0.0451 N.2       1 <0>        -0.4343
     20 C15         5.0963   -3.5424   -0.0456 C.ar      1 <0>         0.1124
     21 C16         6.1998   -3.6931    0.7973 C.ar      1 <0>        -0.1721
     22 C17         7.2026   -2.7460    0.7912 C.ar      1 <0>        -0.1047
     23 C18         7.1172   -1.6486   -0.0473 C.ar      1 <0>        -0.1539
     24 C19         6.0267   -1.4927   -0.8847 C.ar      1 <0>        -0.1071
     25 C20         5.0193   -2.4350   -0.8932 C.ar      1 <0>        -0.1163
     26 Br1         3.0506  -10.8963   -0.0736 Br        1 <0>        -0.0938
     27 H1          1.0042    1.8801    0.0026 H         1 <0>         0.0726
     28 H2         -0.5455    1.8639   -0.8728 H         1 <0>         0.0665
     29 H3         -0.5286    1.8543    0.9071 H         1 <0>         0.0664
     30 H4         -0.0064   -0.1436   -2.1312 H         1 <0>         0.1239
     31 H5          0.0266   -2.6057   -2.1448 H         1 <0>         0.1344
     32 H6          0.0491   -2.6289    2.1200 H         1 <0>         0.1340
     33 H7          0.0245   -0.1667    2.1335 H         1 <0>         0.1237
     34 H8         -0.0635   -7.0069   -0.0456 H         1 <0>         0.1091
     35 H9          0.5131   -9.3943   -0.0618 H         1 <0>         0.1152
     36 H10         4.6682   -8.4347   -0.0587 H         1 <0>         0.1210
     37 H11         5.4284   -6.0614   -0.0610 H         1 <0>         0.0866
     38 H12         6.2675   -4.5489    1.4525 H         1 <0>         0.1176
     39 H13         8.0562   -2.8610    1.4428 H         1 <0>         0.1146
     40 H14         7.9052   -0.9101   -0.0480 H         1 <0>         0.1135
     41 H15         5.9663   -0.6336   -1.5363 H         1 <0>         0.1172
     42 H16         4.1709   -2.3143   -1.5505 H         1 <0>         0.1245
@<TRIPOS>BOND
     1    1    2 1
     2    1   27 1
     3    1   28 1
     4    1   29 1
     5    2    7 ar
     6    2    3 ar
     7    3    4 ar
     8    3   30 1
     9    4    5 ar
    10    4   31 1
    11    5    6 ar
    12    5    8 1
    13    6    7 ar
    14    6   32 1
    15    7   33 1
    16    8    9 2
    17    8   10 2
    18    8   11 1
    19   11   12 1
    20   12   17 ar
    21   12   13 ar
    22   13   14 ar
    23   13   34 1
    24   14   15 ar
    25   14   35 1
    26   15   16 ar
    27   15   26 1
    28   16   17 ar
    29   16   36 1
    30   17   18 1
    31   18   19 2
    32   18   37 1
    33   19   20 1
    34   20   25 ar
    35   20   21 ar
    36   21   22 ar
    37   21   38 1
    38   22   23 ar
    39   22   39 1
    40   23   24 ar
    41   23   40 1
    42   24   25 ar
    43   24   41 1
    44   25   42 1
@<TRIPOS>MOLECULE
ZINC13174171
   47    50     0     0     0
SMALL
USER_CHARGES

@<TRIPOS>ATOM
      1 C1         -0.0167    1.3781    0.0096 C.ar      1 <0>        -0.1055
      2 C2          1.1709    2.0855    0.0021 C.ar      1 <0>        -0.1183
      3 C3          2.3773    1.4107   -0.0130 C.ar      1 <0>        -0.0971
      4 C4          2.3960    0.0285   -0.0201 C.ar      1 <0>        -0.0869
      5 C5          1.2084   -0.6789   -0.0117 C.ar      1 <0>        -0.0973
      6 C6          0.0021   -0.0041    0.0020 C.ar      1 <0>        -0.1184
      7 C7          3.7112   -0.7071   -0.0376 C.3       1 <0>        -0.0812
      8 S1          4.2568   -1.0108    1.6656 S.3       1 <0>        -0.0440
      9 C8          5.7857   -1.8662    1.4773 C.2       1 <0>         0.1675
     10 C9          6.4824   -2.2614    2.5763 C.2       1 <0>        -0.0993
     11 C10         7.7824   -2.9990    2.4449 C.3       1 <0>         0.0809
     12 H1          8.4887   -2.6120    3.1793 H         1 <0>         0.1095
     13 C11         8.3646   -2.8334    1.0638 C.2       1 <0>        -0.2638
     14 C12         7.5972   -2.4227    0.0318 C.2       1 <0>         0.2196
     15 N1          6.2700   -2.1382    0.2188 N.pl3     1 <0>        -0.6390
     16 C13         8.1741   -2.2756   -1.3548 C.3       1 <0>        -0.0976
     17 C14         9.6508   -1.8862   -1.2582 C.3       1 <0>        -0.1106
     18 C15        10.3872   -2.9676   -0.4607 C.3       1 <0>        -0.1676
     19 C16         9.7294   -3.1180    0.8836 C.2       1 <0>         0.3967
     20 O1         10.3904   -3.4923    1.8320 O.2       1 <0>        -0.4509
     21 C17         7.5482   -4.4641    2.7089 C.ar      1 <0>        -0.0544
     22 C18         6.6757   -5.1796    1.9100 C.ar      1 <0>        -0.0910
     23 C19         6.4603   -6.5234    2.1515 C.ar      1 <0>        -0.1052
     24 C20         7.1167   -7.1534    3.1924 C.ar      1 <0>        -0.1000
     25 C21         7.9898   -6.4391    3.9925 C.ar      1 <0>        -0.0316
     26 C22         8.2103   -5.0942    3.7468 C.ar      1 <0>        -0.0135
     27 Cl1         9.3119   -4.1980    4.7454 Cl        1 <0>        -0.0330
     28 Cl2         8.8143   -7.2298    5.2997 Cl        1 <0>        -0.0477
     29 C23         5.9669   -1.9693    3.8800 C.1       1 <0>         0.2534
     30 N2          5.5578   -1.7376    4.9142 N.1       1 <0>        -0.3994
     31 H2         -0.9591    1.9053    0.0259 H         1 <0>         0.1268
     32 H3          1.1563    3.1654    0.0076 H         1 <0>         0.1279
     33 H4          3.3051    1.9634   -0.0196 H         1 <0>         0.1262
     34 H5          1.2231   -1.7588   -0.0176 H         1 <0>         0.1264
     35 H6         -0.9258   -0.5567    0.0082 H         1 <0>         0.1279
     36 H7          3.5884   -1.6586   -0.5549 H         1 <0>         0.1013
     37 H8          4.4573   -0.1052   -0.5563 H         1 <0>         0.1039
     38 H9          5.6676   -2.1246   -0.5414 H         1 <0>         0.4179
     39 H10         8.0825   -3.2217   -1.8882 H         1 <0>         0.1025
     40 H11         7.6291   -1.5010   -1.8943 H         1 <0>         0.0915
     41 H12        10.0771   -1.8149   -2.2588 H         1 <0>         0.0887
     42 H13         9.7441   -0.9274   -0.7480 H         1 <0>         0.0766
     43 H14        10.3383   -3.9143   -0.9986 H         1 <0>         0.1010
     44 H15        11.4289   -2.6761   -0.3265 H         1 <0>         0.0992
     45 H16         6.1619   -4.6881    1.0970 H         1 <0>         0.1280
     46 H17         5.7785   -7.0814    1.5268 H         1 <0>         0.1377
     47 H18         6.9473   -8.2032    3.3809 H         1 <0>         0.1421
@<TRIPOS>BOND
     1    1    6 ar
     2    1    2 ar
     3    1   31 1
     4    2    3 ar
     5    2   32 1
     6    3    4 ar
     7    3   33 1
     8    4    5 ar
     9    4    7 1
    10    5    6 ar
    11    5   34 1
    12    6   35 1
    13    7    8 1
    14    7   36 1
    15    7   37 1
    16    8    9 1
    17    9   15 1
    18    9   10 2
    19   10   11 1
    20   10   29 1
    21   11   12 1
    22   11   13 1
    23   11   21 1
    24   13   19 1
    25   13   14 2
    26   14   15 1
    27   14   16 1
    28   15   38 1
    29   16   17 1
    30   16   39 1
    31   16   40 1
    32   17   18 1
    33   17   41 1
    34   17   42 1
    35   18   19 1
    36   18   43 1
    37   18   44 1
    38   19   20 2
    39   21   26 ar
    40   21   22 ar
    41   22   23 ar
    42   22   45 1
    43   23   24 ar
    44   23   46 1
    45   24   25 ar
    46   24   47 1
    47   25   26 ar
    48   25   28 1
    49   26   27 1
    50   29   30 3
@<TRIPOS>MOLECULE
ZINC33169149
   38    41     0     0     0
SMALL
USER_CHARGES
N-[4-(1,3-benzothiazol-2-yl)phenyl]-3,5-difluoro-benzenesulfonamide
@<TRIPOS>ATOM
      1 C1         -0.6899   -8.7216   -1.0622 C.ar      1 <0>        -0.1110
      2 C2          0.1180   -8.8850   -2.1789 C.ar      1 <0>        -0.1131
      3 C3          0.7072   -7.7759   -2.7570 C.ar      1 <0>        -0.0623
      4 C4          0.4829   -6.5335   -2.2165 C.ar      1 <0>        -0.1559
      5 C5         -0.3353   -6.3344   -1.0793 C.ar      1 <0>         0.0978
      6 C6         -0.9186   -7.4962   -0.5194 C.ar      1 <0>        -0.0730
      7 N1         -0.4554   -5.0588   -0.6620 N.2       1 <0>        -0.5294
      8 C7          0.1370   -4.0560   -1.2739 C.2       1 <0>         0.2599
      9 S1          1.0064   -4.8799   -2.6005 S.3       1 <0>        -0.0367
     10 C8          0.0985   -2.6163   -0.9444 C.ar      1 <0>        -0.1047
     11 C9         -0.6494   -2.1680    0.1465 C.ar      1 <0>        -0.0387
     12 C10        -0.6837   -0.8251    0.4509 C.ar      1 <0>        -0.1702
     13 C11         0.0256    0.0842   -0.3270 C.ar      1 <0>         0.2573
     14 C12         0.7671   -0.3588   -1.4174 C.ar      1 <0>        -0.1636
     15 C13         0.8096   -1.7010   -1.7236 C.ar      1 <0>        -0.0634
     16 N2         -0.0114    1.4424   -0.0168 N.2       1 <0>        -1.0803
     17 S2          0.8393    2.0186    1.2819 S.o2      1 <0>         2.5957
     18 O1          0.6475    3.4265    1.3008 O.2       1 <0>        -0.9874
     19 O2          0.5053    1.1894    2.3865 O.2       1 <0>        -1.0239
     20 C14         2.5479    1.7476    0.9473 C.ar      1 <0>        -0.6007
     21 C15         3.1364    0.5450    1.2902 C.ar      1 <0>        -0.0704
     22 C16         4.4777    0.3287    1.0225 C.ar      1 <0>         0.1054
     23 C17         5.2318    1.3218    0.4216 C.ar      1 <0>        -0.1617
     24 C18         4.6427    2.5279    0.0838 C.ar      1 <0>         0.1025
     25 C19         3.2999    2.7398    0.3472 C.ar      1 <0>        -0.0700
     26 F1          5.3774    3.4979   -0.5032 F         1 <0>        -0.1340
     27 F2          5.0515   -0.8488    1.3532 F         1 <0>        -0.1329
     28 H1         -1.1484   -9.5901   -0.6129 H         1 <0>         0.1293
     29 H2          0.2850   -9.8688   -2.5920 H         1 <0>         0.1337
     30 H3          1.3384   -7.8856   -3.6264 H         1 <0>         0.1294
     31 H4         -1.5535   -7.4081    0.3498 H         1 <0>         0.1300
     32 H5         -1.2005   -2.8734    0.7506 H         1 <0>         0.1238
     33 H6         -1.2621   -0.4777    1.2942 H         1 <0>         0.1285
     34 H7          1.3132    0.3500   -2.0222 H         1 <0>         0.1225
     35 H8          1.3888   -2.0449   -2.5678 H         1 <0>         0.1139
     36 H9          2.5489   -0.2279    1.7634 H         1 <0>         0.1516
     37 H10         6.2791    1.1558    0.2168 H         1 <0>         0.1468
     38 H11         2.8399    3.6807    0.0834 H         1 <0>         0.1549
@<TRIPOS>BOND
     1    1    6 ar
     2    1    2 ar
     3    1   28 1
     4    2    3 ar
     5    2   29 1
     6    3    4 ar
     7    3   30 1
     8    4    9 1
     9    4    5 ar
    10    5    6 ar
    11    5    7 1
    12    6   31 1
    13    7    8 2
    14    8    9 1
    15    8   10 1
    16   10   15 ar
    17   10   11 ar
    18   11   12 ar
    19   11   32 1
    20   12   13 ar
    21   12   33 1
    22   13   14 ar
    23   13   16 1
    24   14   15 ar
    25   14   34 1
    26   15   35 1
    27   16   17 1
    28   17   18 2
    29   17   19 2
    30   17   20 1
    31   20   25 ar
    32   20   21 ar
    33   21   22 ar
    34   21   36 1
    35   22   23 ar
    36   22   27 1
    37   23   24 ar
    38   23   37 1
    39   24   25 ar
    40   24   26 1
    41   25   38 1
@<TRIPOS>MOLECULE
ZINC37575896
   29    30     0     0     0
SMALL
USER_CHARGES

@<TRIPOS>ATOM
      1 C1         -0.0184    1.5028    0.0103 C.3       1 <0>        -0.0791
      2 C2          0.0021   -0.0041    0.0020 C.ar      1 <0>        -0.1461
      3 C3          0.0057   -0.6887   -1.1977 C.ar      1 <0>        -0.0713
      4 C4          0.0244   -2.0709   -1.2068 C.ar      1 <0>        -0.2142
      5 C5          0.0395   -2.7737   -0.0143 C.ar      1 <0>         0.0242
      6 C6          0.0355   -2.0945    1.1892 C.ar      1 <0>        -0.2557
      7 C7          0.0230   -0.7055    1.2007 C.ar      1 <0>         0.2948
      8 N1          0.0256   -0.0156    2.4152 N.2       1 <0>        -1.0643
      9 S1          0.0505   -0.8535    3.8434 S.o2      1 <0>         2.5884
     10 O1         -1.1849   -1.5506    3.9269 O.2       1 <0>        -1.0237
     11 O2          1.3054   -1.5176    3.9028 O.2       1 <0>        -1.0019
     12 C8          0.0474    0.3345    5.1446 C.ar      1 <0>        -0.5827
     13 C9         -1.0280    0.4087    6.0101 C.ar      1 <0>        -0.0212
     14 C10        -1.0308    1.3401    7.0311 C.ar      1 <0>        -0.1038
     15 C11         0.0427    2.1987    7.1875 C.ar      1 <0>        -0.0519
     16 C12         1.1187    2.1248    6.3220 C.ar      1 <0>        -0.0915
     17 C13         1.1234    1.1889    5.3033 C.ar      1 <0>         0.0073
     18 Br1         2.5978    1.0821    4.1241 Br        1 <0>         0.0030
     19 Br2         0.0385    3.4734    8.5843 Br        1 <0>        -0.0418
     20 Cl1         0.0630   -4.5094   -0.0306 Cl        1 <0>        -0.1088
     21 H1          1.0042    1.8801    0.0026 H         1 <0>         0.0494
     22 H2         -0.5455    1.8639   -0.8728 H         1 <0>         0.0386
     23 H3         -0.5286    1.8543    0.9071 H         1 <0>         0.0737
     24 H4         -0.0064   -0.1433   -2.1298 H         1 <0>         0.1138
     25 H5          0.0269   -2.6036   -2.1463 H         1 <0>         0.1119
     26 H6          0.0470   -2.6428    2.1196 H         1 <0>         0.1072
     27 H7         -1.8664   -0.2611    5.8881 H         1 <0>         0.1560
     28 H8         -1.8713    1.3979    7.7069 H         1 <0>         0.1436
     29 H9          1.9569    2.7949    6.4438 H         1 <0>         0.1459
@<TRIPOS>BOND
     1    1    2 1
     2    1   21 1
     3    1   22 1
     4    1   23 1
     5    2    7 ar
     6    2    3 ar
     7    3    4 ar
     8    3   24 1
     9    4    5 ar
    10    4   25 1
    11    5    6 ar
    12    5   20 1
    13    6    7 ar
    14    6   26 1
    15    7    8 1
    16    8    9 1
    17    9   10 2
    18    9   11 2
    19    9   12 1
    20   12   17 ar
    21   12   13 ar
    22   13   14 ar
    23   13   27 1
    24   14   15 ar
    25   14   28 1
    26   15   16 ar
    27   15   19 1
    28   16   17 ar
    29   16   29 1
    30   17   18 1
@<TRIPOS>MOLECULE
ZINC39556962
   44    47     0     0     0
SMALL
USER_CHARGES

@<TRIPOS>ATOM
      1 C1         -0.0632    1.3646   -0.0646 C.3       1 <0>        -0.1606
      2 C2         -0.0317   -0.1650   -0.0445 C.3       1 <0>         0.1243
      3 N1          0.6825   -0.6230    1.1499 N.am      1 <0>        -0.5718
      4 C3          2.0109   -0.8529    1.2369 C.2       1 <0>         0.5117
      5 O1          2.8408   -0.7240    0.3541 O.2       1 <0>        -0.5254
      6 C4          2.2446   -1.2909    2.6197 C.2       1 <0>        -0.0373
      7 C5          3.4530   -1.6417    3.1877 C.2       1 <0>         0.0097
      8 C6          3.5074   -2.0448    4.5451 C.2       1 <0>        -0.1623
      9 C7          2.4478   -2.1434    5.4219 C.2       1 <0>         0.1263
     10 N2          2.8989   -2.5620    6.6308 N.pl3     1 <0>        -0.4675
     11 C8          4.2651   -2.7543    6.5980 C.ar      1 <0>         0.0885
     12 C9          4.7087   -2.4493    5.3014 C.ar      1 <0>        -0.0788
     13 C10         6.0582   -2.5626    4.9798 C.ar      1 <0>        -0.0754
     14 C11         6.9559   -2.9791    5.9391 C.ar      1 <0>        -0.1479
     15 C12         6.5194   -3.2845    7.2196 C.ar      1 <0>        -0.1120
     16 C13         5.1873   -3.1688    7.5537 C.ar      1 <0>        -0.1252
     17 C14         2.0536   -2.7790    7.8075 C.3       1 <0>         0.1495
     18 C15         0.6461   -2.3341    7.5039 C.ar      1 <0>        -0.1080
     19 C16         0.2892   -1.0077    7.6678 C.ar      1 <0>        -0.0015
     20 C17        -1.0031   -0.5998    7.3890 C.ar      1 <0>        -0.0974
     21 C18        -1.9376   -1.5175    6.9472 C.ar      1 <0>        -0.0583
     22 C19        -1.5816   -2.8429    6.7832 C.ar      1 <0>        -0.0938
     23 C20        -0.2879   -3.2508    7.0559 C.ar      1 <0>        -0.0010
     24 Cl1         0.1612   -4.9141    6.8425 Cl        1 <0>        -0.0563
     25 Cl2         1.4625    0.1447    8.2238 Cl        1 <0>        -0.0562
     26 N3          1.0196   -1.2797    3.2297 N.2       1 <0>        -0.5522
     27 C21         0.1170   -0.8857    2.3715 C.2       1 <0>         0.4956
     28 S1         -1.5993   -0.7186    2.7337 S.3       1 <0>        -0.7813
     29 H1          0.9567    1.7488   -0.0814 H         1 <0>         0.0489
     30 H2         -0.5945    1.7053   -0.9532 H         1 <0>         0.0637
     31 H3         -0.5743    1.7292    0.8265 H         1 <0>         0.0667
     32 H4         -1.0515   -0.5493   -0.0277 H         1 <0>         0.0964
     33 H5          0.4794   -0.5296   -0.9355 H         1 <0>         0.0718
     34 H6          4.3569   -1.6089    2.5976 H         1 <0>         0.1276
     35 H7          1.4182   -1.9212    5.1833 H         1 <0>         0.2059
     36 H8          6.4002   -2.3257    3.9831 H         1 <0>         0.1206
     37 H9          8.0036   -3.0684    5.6925 H         1 <0>         0.1179
     38 H10         7.2311   -3.6099    7.9639 H         1 <0>         0.1190
     39 H11         4.8579   -3.4107    8.5533 H         1 <0>         0.1139
     40 H12         2.0525   -3.8385    8.0636 H         1 <0>         0.0930
     41 H13         2.4438   -2.2029    8.6465 H         1 <0>         0.0938
     42 H14        -1.2819    0.4357    7.5169 H         1 <0>         0.1402
     43 H15        -2.9465   -1.1987    6.7303 H         1 <0>         0.1442
     44 H16        -2.3123   -3.5595    6.4383 H         1 <0>         0.1410
@<TRIPOS>BOND
     1    1    2 1
     2    1   29 1
     3    1   30 1
     4    1   31 1
     5    2    3 1
     6    2   32 1
     7    2   33 1
     8    3   27 1
     9    3    4 am
    10    4    5 2
    11    4    6 1
    12    6    7 2
    13    6   26 1
    14    7    8 1
    15    7   34 1
    16    8   12 1
    17    8    9 2
    18    9   10 1
    19    9   35 1
    20   10   11 1
    21   10   17 1
    22   11   16 ar
    23   11   12 ar
    24   12   13 ar
    25   13   14 ar
    26   13   36 1
    27   14   15 ar
    28   14   37 1
    29   15   16 ar
    30   15   38 1
    31   16   39 1
    32   17   18 1
    33   17   40 1
    34   17   41 1
    35   18   23 ar
    36   18   19 ar
    37   19   20 ar
    38   19   25 1
    39   20   21 ar
    40   20   42 1
    41   21   22 ar
    42   21   43 1
    43   22   23 ar
    44   22   44 1
    45   23   24 1
    46   26   27 2
    47   27   28 1
@<TRIPOS>MOLECULE
ZINC54802576
   38    41     0     0     0
SMALL
USER_CHARGES

@<TRIPOS>ATOM
      1 C1          0.7478    1.6502    2.0775 C.ar      1 <0>        -0.1349
      2 C2          1.6526    2.2631    1.2295 C.ar      1 <0>        -0.1162
      3 C3          2.6586    1.5250    0.6396 C.ar      1 <0>        -0.1198
      4 C4          2.7621    0.1601    0.9000 C.ar      1 <0>        -0.0056
      5 C5          1.8483   -0.4521    1.7554 C.ar      1 <0>        -0.1212
      6 C6          0.8459    0.2955    2.3395 C.ar      1 <0>        -0.1158
      7 C7          3.8415   -0.6388    0.2683 C.2       1 <0>        -0.1206
      8 C8          3.9549   -1.9963    0.5124 C.2       1 <0>        -0.1199
      9 C9          5.0019   -2.6397   -0.1331 C.2       1 <0>        -0.1847
     10 S1          5.7629   -1.3086   -1.0409 S.3       1 <0>         0.3555
     11 C10         4.7521   -0.0490   -0.5803 C.2       1 <0>        -0.2895
     12 C11         5.3705   -4.0037   -0.0831 C.2       1 <0>         0.0329
     13 C12         6.6819   -4.3606   -0.2005 C.2       1 <0>        -0.1954
     14 C13         7.8941   -3.5151   -0.2190 C.2       1 <0>         0.5160
     15 O1          7.8303   -2.2984   -0.1215 O.2       1 <0>        -0.5033
     16 N1          9.0412   -4.1372   -0.3450 N.2       1 <0>        -0.6263
     17 C14         9.1226   -5.4631   -0.4517 C.2       1 <0>         0.3494
     18 C15        10.2740   -6.2604   -0.5910 C.2       1 <0>        -0.3443
     19 C16        11.5084   -5.6765   -0.6311 C.2       1 <0>         0.3882
     20 O2         11.6242   -4.3306   -0.5369 O.3       1 <0>        -0.5439
     21 C17        12.7060   -6.5058   -0.7760 C.2       1 <0>        -0.0176
     22 C18        13.9956   -6.0537   -0.8244 C.2       1 <0>        -0.1619
     23 C19        14.8146   -7.1851   -0.9687 C.2       1 <0>        -0.2240
     24 C20        14.0014   -8.2634   -1.0017 C.2       1 <0>        -0.0403
     25 O3         12.7314   -7.8505   -0.8794 O.3       1 <0>        -0.1621
     26 S2          7.4159   -5.9829   -0.3672 S.3       1 <0>        -0.1800
     27 H1         -0.0354    2.2323    2.5402 H         1 <0>         0.1178
     28 H2          1.5714    3.3211    1.0284 H         1 <0>         0.1197
     29 H3          3.3641    2.0044   -0.0228 H         1 <0>         0.1210
     30 H4          1.9238   -1.5097    1.9603 H         1 <0>         0.1228
     31 H5          0.1368   -0.1780    3.0023 H         1 <0>         0.1199
     32 H6          3.2724   -2.5216    1.1640 H         1 <0>         0.1369
     33 H7          4.8050    0.9873   -0.8798 H         1 <0>         0.1776
     34 H8          4.6139   -4.7631    0.0482 H         1 <0>         0.1421
     35 H9         10.1816   -7.3338   -0.6662 H         1 <0>         0.1260
     36 H10        14.3212   -5.0257   -0.7635 H         1 <0>         0.1534
     37 H11        15.8923   -7.1919   -1.0399 H         1 <0>         0.1470
     38 H12        14.3217   -9.2897   -1.1048 H         1 <0>         0.2010
@<TRIPOS>BOND
     1    1    6 ar
     2    1    2 ar
     3    1   27 1
     4    2    3 ar
     5    2   28 1
     6    3    4 ar
     7    3   29 1
     8    4    5 ar
     9    4    7 1
    10    5    6 ar
    11    5   30 1
    12    6   31 1
    13    7   11 2
    14    7    8 1
    15    8    9 2
    16    8   32 1
    17    9   10 1
    18    9   12 1
    19   10   11 1
    20   11   33 1
    21   12   13 2
    22   12   34 1
    23   13   26 1
    24   13   14 1
    25   14   15 2
    26   14   16 1
    27   16   17 2
    28   17   18 1
    29   17   26 1
    30   18   19 2
    31   18   35 1
    32   19   20 1
    33   19   21 1
    34   21   25 1
    35   21   22 2
    36   22   23 1
    37   22   36 1
    38   23   24 2
    39   23   37 1
    40   24   25 1
    41   24   38 1
@<TRIPOS>MOLECULE
ZINC18096917
   54    57     0     0     0
SMALL
USER_CHARGES

@<TRIPOS>ATOM
      1 C1          2.4915    0.4614   -0.7345 C.3       1 <0>        -0.1104
      2 C2          2.1796   -1.0096   -0.6355 C.ar      1 <0>        -0.0867
      3 C3          3.1851   -1.9417   -0.8157 C.ar      1 <0>        -0.1166
      4 C4          2.9026   -3.2906   -0.7257 C.ar      1 <0>        -0.0786
      5 C5          1.6068   -3.7106   -0.4538 C.ar      1 <0>         0.1787
      6 C6          0.5992   -2.7718   -0.2734 C.ar      1 <0>        -0.1147
      7 C7          0.8896   -1.4243   -0.3591 C.ar      1 <0>        -0.1174
      8 N1          1.3284   -5.0234   -0.3659 N.pl3     1 <0>        -0.5428
      9 C8          1.1548   -5.8311   -1.4226 C.2       1 <0>         0.5362
     10 N2          0.6030   -7.0519   -1.1202 N.2       1 <0>        -0.5554
     11 C9          0.3913   -7.0491    0.2234 C.2       1 <0>         0.3646
     12 N3         -0.3202   -8.0073    0.8159 N.2       1 <0>        -0.5536
     13 C10        -0.6360   -7.9034    2.1432 C.ar      1 <0>         0.1516
     14 C11         0.3657   -7.9976    3.1124 C.ar      1 <0>        -0.1665
     15 C12         0.0403   -7.8915    4.4483 C.ar      1 <0>        -0.0955
     16 C13        -1.2750   -7.6922    4.8298 C.ar      1 <0>        -0.1566
     17 C14        -2.2723   -7.5984    3.8754 C.ar      1 <0>        -0.1034
     18 C15        -1.9605   -7.6970    2.5352 C.ar      1 <0>        -0.1175
     19 C16        -3.0472   -7.5878    1.4968 C.3       1 <0>        -0.0994
     20 C17         1.0975   -5.8780    0.8092 C.3       1 <0>         0.1509
     21 C18         0.1658   -5.2436    1.8772 C.3       1 <0>        -0.1732
     22 C19         0.8368   -4.2156    2.6959 C.3       1 <0>         0.0861
     23 O1          1.8959   -4.9582    3.3357 O.3       1 <0>        -0.3811
     24 C20         2.9005   -5.5253    2.5990 C.3       1 <0>         0.1418
     25 C21         2.3636   -6.3552    1.3949 C.3       1 <0>        -0.1547
     26 C22         3.7591   -6.3860    3.5219 C.3       1 <0>        -0.1335
     27 C23         3.8080   -4.3925    1.9849 C.3       1 <0>        -0.1936
     28 S1          1.5784   -5.3672   -3.1132 S.3       1 <0>        -0.7675
     29 H1          2.7747    0.8396    0.2478 H         1 <0>         0.0666
     30 H2          3.3146    0.6121   -1.4330 H         1 <0>         0.0647
     31 H3          1.6108    0.9965   -1.0898 H         1 <0>         0.0640
     32 H4          4.1923   -1.6145   -1.0274 H         1 <0>         0.1214
     33 H5          3.6882   -4.0181   -0.8669 H         1 <0>         0.1216
     34 H6         -0.4093   -3.0951   -0.0618 H         1 <0>         0.1171
     35 H7          0.1075   -0.6937   -0.2146 H         1 <0>         0.1210
     36 H8          1.3926   -8.1534    2.8161 H         1 <0>         0.1176
     37 H9          0.8136   -7.9645    5.1986 H         1 <0>         0.1133
     38 H10        -1.5242   -7.6099    5.8774 H         1 <0>         0.1128
     39 H11        -3.2967   -7.4432    4.1802 H         1 <0>         0.1152
     40 H12        -3.4542   -8.5779    1.2915 H         1 <0>         0.0645
     41 H13        -3.8403   -6.9386    1.8678 H         1 <0>         0.0534
     42 H14        -2.6329   -7.1680    0.5801 H         1 <0>         0.0669
     43 H15        -0.6409   -4.7352    1.3063 H         1 <0>         0.0598
     44 H16        -0.3105   -6.0529    2.4980 H         1 <0>         0.1299
     45 H17         1.2333   -3.3911    2.1609 H         1 <0>         0.0621
     46 H18         0.1069   -3.8445    3.4379 H         1 <0>         0.0954
     47 H19         2.2500   -7.3414    1.8412 H         1 <0>         0.0823
     48 H20         3.1740   -6.4227    0.6219 H         1 <0>         0.0822
     49 H21         3.1426   -7.1658    3.9690 H         1 <0>         0.0632
     50 H22         4.5639   -6.8440    2.9469 H         1 <0>         0.0689
     51 H23         4.1839   -5.7627    4.3088 H         1 <0>         0.0664
     52 H24         4.3484   -3.8863    2.7847 H         1 <0>         0.0541
     53 H25         4.5203   -4.8352    1.2886 H         1 <0>         0.0578
     54 H26         3.1829   -3.6727    1.4565 H         1 <0>         0.0663
@<TRIPOS>BOND
     1    1    2 1
     2    1   29 1
     3    1   30 1
     4    1   31 1
     5    2    7 ar
     6    2    3 ar
     7    3    4 ar
     8    3   32 1
     9    4    5 ar
    10    4   33 1
    11    5    6 ar
    12    5    8 1
    13    6    7 ar
    14    6   34 1
    15    7   35 1
    16    8   20 1
    17    8    9 1
    18    9   10 2
    19    9   28 1
    20   10   11 1
    21   11   12 2
    22   11   20 1
    23   12   13 1
    24   13   18 ar
    25   13   14 ar
    26   14   15 ar
    27   14   36 1
    28   15   16 ar
    29   15   37 1
    30   16   17 ar
    31   16   38 1
    32   17   18 ar
    33   17   39 1
    34   18   19 1
    35   19   40 1
    36   19   41 1
    37   19   42 1
    38   20   25 1
    39   20   21 1
    40   21   22 1
    41   21   43 1
    42   21   44 1
    43   22   23 1
    44   22   45 1
    45   22   46 1
    46   23   24 1
    47   24   25 1
    48   24   26 1
    49   24   27 1
    50   25   47 1
    51   25   48 1
    52   26   49 1
    53   26   50 1
    54   26   51 1
    55   27   52 1
    56   27   53 1
    57   27   54 1
@<TRIPOS>MOLECULE
ZINC04990682
   27    28     0     0     0
SMALL
USER_CHARGES
2-[(4-bromo-3-chloro-phenyl)iminomethyl]-4-nitro-phenol
@<TRIPOS>ATOM
      1 C1         -3.4393   -2.4061    0.8815 C.ar      1 <0>        -0.1666
      2 C2         -4.6221   -3.1162    0.8805 C.ar      1 <0>        -0.0572
      3 C3         -4.7850   -4.1945    0.0282 C.ar      1 <0>        -0.1204
      4 C4         -3.7649   -4.5641   -0.8342 C.ar      1 <0>         0.0081
      5 C5         -2.5792   -3.8579   -0.8472 C.ar      1 <0>        -0.1075
      6 C6         -2.4093   -2.7692    0.0111 C.ar      1 <0>         0.1475
      7 N1         -1.2360   -2.0646    0.0033 N.2       1 <0>        -0.4655
      8 C7         -1.2584   -0.7610    0.0105 C.2       1 <0>         0.2470
      9 C8          0.0021   -0.0041    0.0020 C.ar      1 <0>        -0.2356
     10 C9         -0.0169    1.3945    0.0097 C.ar      1 <0>         0.0380
     11 C10         1.1683    2.0972    0.0022 C.ar      1 <0>        -0.1787
     12 C11         2.3796    1.4250   -0.0135 C.ar      1 <0>        -0.0124
     13 C12         2.4132    0.0441   -0.0207 C.ar      1 <0>        -0.2356
     14 C13         1.2316   -0.6802   -0.0134 C.ar      1 <0>         0.3233
     15 N2          1.1472    3.5772    0.0103 N.pl3     1 <0>         0.0668
     16 O1          0.0838    4.1711    0.0237 O.2       1 <0>        -0.2230
     17 O2          2.1931    4.2013    0.0037 O.3       1 <0>        -0.2201
     18 Cl1        -3.9792   -5.9173   -1.9004 Cl        1 <0>        -0.0533
     19 Br1        -6.4066   -5.1673    0.0399 Br        1 <0>        -0.0444
     20 H1         -3.3119   -1.5682    1.5508 H         1 <0>         0.1348
     21 H2         -5.4208   -2.8334    1.5501 H         1 <0>         0.1383
     22 H3         -1.7846   -4.1466   -1.5192 H         1 <0>         0.1464
     23 H4         -2.2028   -0.2372    0.0227 H         1 <0>         0.0953
     24 H5         -0.9589    1.9226    0.0170 H         1 <0>         0.1316
     25 H6          3.3035    1.9843   -0.0193 H         1 <0>         0.1272
     26 H7          3.3619   -0.4721   -0.0326 H         1 <0>         0.1245
     27 O3          1.2635   -2.0369   -0.0214 O.3       1 <0>        -0.6087
@<TRIPOS>BOND
     1    1    6 ar
     2    1    2 ar
     3    1   20 1
     4    2    3 ar
     5    2   21 1
     6    3    4 ar
     7    3   19 1
     8    4    5 ar
     9    4   18 1
    10    5    6 ar
    11    5   22 1
    12    6    7 1
    13    7    8 2
    14    8    9 1
    15    8   23 1
    16    9   14 ar
    17    9   10 ar
    18   10   11 ar
    19   10   24 1
    20   11   12 ar
    21   11   15 1
    22   12   13 ar
    23   12   25 1
    24   13   14 ar
    25   13   26 1
    26   14   27 1
    27   15   16 2
    28   15   17 1
@<TRIPOS>MOLECULE
ZINC28352151
   42    44     0     0     0
SMALL
USER_CHARGES
4-[[(Z)-3-(2-methoxyphenyl)prop-2-enylidene]amino]-5-(p-tolyl)-1,2,4-triazole-3-thiol
@<TRIPOS>ATOM
      1 C1          4.1324   -2.2727   -6.9599 C.3       1 <0>        -0.1119
      2 C2          4.2816   -2.9136   -5.6041 C.ar      1 <0>        -0.0953
      3 C3          4.6389   -4.2468   -5.5081 C.ar      1 <0>        -0.1183
      4 C4          4.7767   -4.8398   -4.2702 C.ar      1 <0>        -0.0862
      5 C5          4.5548   -4.0915   -3.1127 C.ar      1 <0>         0.0156
      6 C6          4.1893   -2.7481   -3.2168 C.ar      1 <0>        -0.1127
      7 C7          4.0601   -2.1662   -4.4609 C.ar      1 <0>        -0.1163
      8 C8          4.7001   -4.7202   -1.7833 C.2       1 <0>         0.1527
      9 N1          4.7587   -6.0081   -1.5305 N.2       1 <0>        -0.2703
     10 N2          4.8861   -6.2031   -0.2668 N.2       1 <0>        -0.3341
     11 C9          4.9225   -5.0518    0.3675 C.2       1 <0>         0.3819
     12 N3          4.7996   -4.0665   -0.5745 N.pl3     1 <0>        -0.3595
     13 N4          4.7844   -2.6827   -0.3559 N.2       1 <0>        -0.2320
     14 C10         3.6548   -2.0688   -0.1460 C.2       1 <0>         0.1522
     15 C11         2.4412   -2.8008   -0.1386 C.2       1 <0>        -0.1765
     16 C12         1.2847   -2.1865    0.1879 C.2       1 <0>        -0.0311
     17 C13         1.3029   -0.8063    0.6949 C.ar      1 <0>        -0.1005
     18 C14         2.2943   -0.3999    1.5935 C.ar      1 <0>        -0.0691
     19 C15         2.3053    0.8956    2.0642 C.ar      1 <0>        -0.1529
     20 C16         1.3386    1.7973    1.6512 C.ar      1 <0>        -0.0738
     21 C17         0.3530    1.4089    0.7635 C.ar      1 <0>        -0.2118
     22 C18         0.3257    0.1113    0.2797 C.ar      1 <0>         0.1441
     23 O1         -0.6424   -0.2713   -0.5921 O.3       1 <0>        -0.3097
     24 C19        -1.6033    0.7169   -0.9691 C.3       1 <0>         0.0233
     25 S1          5.0931   -4.8209    2.1060 S.3       1 <0>        -0.7936
     26 H1          4.3464   -3.0157   -7.7422 H         1 <0>         0.0632
     27 H2          4.8380   -1.4335   -7.0484 H         1 <0>         0.0663
     28 H3          3.1039   -1.9011   -7.0786 H         1 <0>         0.0661
     29 H4          4.8106   -4.8245   -6.4043 H         1 <0>         0.1234
     30 H5          5.0553   -5.8807   -4.1966 H         1 <0>         0.1335
     31 H6          4.0121   -2.1648   -2.3254 H         1 <0>         0.1212
     32 H7          3.7815   -1.1260   -4.5428 H         1 <0>         0.1200
     33 H8          3.6429   -0.9823    0.0255 H         1 <0>         0.1865
     34 H9          2.4419   -3.8695   -0.3989 H         1 <0>         0.1286
     35 H10         0.3285   -2.7183    0.0748 H         1 <0>         0.1356
     36 H11         3.0499   -1.0999    1.9184 H         1 <0>         0.1420
     37 H12         3.0715    1.2090    2.7579 H         1 <0>         0.1298
     38 H13         1.3550    2.8104    2.0252 H         1 <0>         0.1256
     39 H14        -0.3945    2.1195    0.4432 H         1 <0>         0.1292
     40 H15        -2.3244    0.2771   -1.6738 H         1 <0>         0.1019
     41 H16        -1.0901    1.5627   -1.4499 H         1 <0>         0.0567
     42 H17        -2.1351    1.0715   -0.0739 H         1 <0>         0.0563
@<TRIPOS>BOND
     1    1    2 1
     2    1   26 1
     3    1   27 1
     4    1   28 1
     5    2    7 ar
     6    2    3 ar
     7    3    4 ar
     8    3   29 1
     9    4    5 ar
    10    4   30 1
    11    5    6 ar
    12    5    8 1
    13    6    7 ar
    14    6   31 1
    15    7   32 1
    16    8   12 1
    17    8    9 2
    18    9   10 1
    19   10   11 2
    20   11   12 1
    21   11   25 1
    22   12   13 1
    23   13   14 2
    24   14   15 1
    25   14   33 1
    26   15   16 2
    27   15   34 1
    28   16   17 1
    29   16   35 1
    30   17   22 ar
    31   17   18 ar
    32   18   19 ar
    33   18   36 1
    34   19   20 ar
    35   19   37 1
    36   20   21 ar
    37   20   38 1
    38   21   22 ar
    39   21   39 1
    40   22   23 1
    41   23   24 1
    42   24   40 1
    43   24   41 1
    44   24   42 1
@<TRIPOS>MOLECULE
ZINC01094612
   30    31     0     0     0
SMALL
USER_CHARGES

@<TRIPOS>ATOM
      1 C1         -2.0558    0.1965    2.1420 C.3       1 <0>         0.0237
      2 O1         -1.3579   -0.8232    1.4242 O.3       1 <0>        -0.2975
      3 C2         -0.0576   -1.0327    1.7580 C.ar      1 <0>         0.1449
      4 C3          0.5335   -0.2788    2.7578 C.ar      1 <0>        -0.2007
      5 C4          1.8567   -0.4926    3.0969 C.ar      1 <0>        -0.0829
      6 C5          2.5996   -1.4594    2.4416 C.ar      1 <0>        -0.1425
      7 C6          2.0258   -2.2191    1.4433 C.ar      1 <0>        -0.1069
      8 C7          0.6889   -2.0165    1.0960 C.ar      1 <0>         0.0440
      9 N1          0.1122   -2.7709    0.1109 N.2       1 <0>        -0.4194
     10 C8          0.2516   -4.0671    0.1166 C.2       1 <0>         0.1727
     11 C9         -0.2673   -4.8672   -1.0023 C.ar      1 <0>        -0.0673
     12 C10        -0.9067   -4.2412   -2.0786 C.ar      1 <0>        -0.0325
     13 C11        -1.3909   -4.9983   -3.1246 C.ar      1 <0>        -0.1033
     14 C12        -1.2476   -6.3758   -3.1153 C.ar      1 <0>        -0.0546
     15 C13        -0.6186   -7.0070   -2.0584 C.ar      1 <0>        -0.1179
     16 C14        -0.1197   -6.2623   -1.0007 C.ar      1 <0>         0.1710
     17 O2          0.5034   -6.8808    0.0346 O.3       1 <0>        -0.4770
     18 Br1        -0.4315   -8.8887   -2.0592 Br        1 <0>        -0.0218
     19 Br2        -1.1066   -2.3609   -2.0981 Br        1 <0>         0.0188
     20 H1         -1.5567    1.1536    1.9908 H         1 <0>         0.0558
     21 H2         -3.0813    0.2600    1.7780 H         1 <0>         0.1014
     22 H3         -2.0617   -0.0464    3.2045 H         1 <0>         0.0551
     23 H4         -0.0397    0.4776    3.2733 H         1 <0>         0.1331
     24 H5          2.3133    0.0983    3.8771 H         1 <0>         0.1278
     25 H6          3.6327   -1.6194    2.7128 H         1 <0>         0.1280
     26 H7          2.6088   -2.9722    0.9341 H         1 <0>         0.1303
     27 H8          0.7483   -4.5532    0.9433 H         1 <0>         0.1196
     28 H9         -1.8845   -4.5149   -3.9547 H         1 <0>         0.1485
     29 H10        -1.6300   -6.9606   -3.9388 H         1 <0>         0.1489
     30 H11        -0.0903   -7.1414    0.7519 H         1 <0>         0.4007
@<TRIPOS>BOND
     1    1    2 1
     2    1   20 1
     3    1   21 1
     4    1   22 1
     5    2    3 1
     6    3    8 ar
     7    3    4 ar
     8    4    5 ar
     9    4   23 1
    10    5    6 ar
    11    5   24 1
    12    6    7 ar
    13    6   25 1
    14    7    8 ar
    15    7   26 1
    16    8    9 1
    17    9   10 2
    18   10   11 1
    19   10   27 1
    20   11   16 ar
    21   11   12 ar
    22   12   13 ar
    23   12   19 1
    24   13   14 ar
    25   13   28 1
    26   14   15 ar
    27   14   29 1
    28   15   16 ar
    29   15   18 1
    30   16   17 1
    31   17   30 1
@<TRIPOS>MOLECULE
ZINC40285829
   27    29     0     0     0
SMALL
USER_CHARGES

@<TRIPOS>ATOM
      1 C1          1.1897   -0.9441   -0.2327 C.ar      1 <0>        -0.0866
      2 C2          2.4447   -0.3821   -0.3206 C.ar      1 <0>        -0.1237
      3 C3          2.5878    1.0042   -0.2590 C.ar      1 <0>         0.1112
      4 C4          1.4520    1.8142   -0.1080 C.ar      1 <0>        -0.0378
      5 C5          0.1978    1.2327   -0.0208 C.ar      1 <0>        -0.0536
      6 C6          0.0702   -0.1404   -0.0835 C.ar      1 <0>        -0.1500
      7 C7         -1.2957   -0.7700    0.0107 C.3       1 <0>         0.0591
      8 H1         -1.1931   -1.8536    0.0693 H         1 <0>         0.1235
      9 C8         -2.1015   -0.4070   -1.2099 C.ar      1 <0>        -0.0407
     10 C9         -2.4836    0.9047   -1.4203 C.ar      1 <0>        -0.1191
     11 C10        -3.2239    1.2385   -2.5416 C.ar      1 <0>         0.1125
     12 C11        -3.5810    0.2578   -3.4515 C.ar      1 <0>        -0.1260
     13 C12        -3.1979   -1.0536   -3.2394 C.ar      1 <0>        -0.0630
     14 C13        -2.4532   -1.3847   -2.1212 C.ar      1 <0>        -0.0859
     15 Br1        -3.6850   -2.3936   -4.4815 Br        1 <0>        -0.0370
     16 F1         -3.5981    2.5202   -2.7475 F         1 <0>        -0.1295
     17 Br2        -2.2116   -0.1107    1.6206 Br        1 <0>        -0.1437
     18 O1          1.8962    3.0915   -0.0806 O.3       1 <0>        -0.2741
     19 C14         3.2339    3.0734   -0.2078 C.2       1 <0>         0.5167
     20 O2          4.0249    4.1695   -0.2223 O.3       1 <0>        -0.6418
     21 N1          3.6590    1.8429   -0.3146 N.2       1 <0>        -0.6100
     22 H2          1.0771   -2.0170   -0.2848 H         1 <0>         0.1210
     23 H3          3.3141   -1.0123   -0.4364 H         1 <0>         0.1233
     24 H4         -0.6789    1.8526    0.0955 H         1 <0>         0.1175
     25 H5         -2.2050    1.6689   -0.7099 H         1 <0>         0.1488
     26 H6         -4.1588    0.5171   -4.3264 H         1 <0>         0.1458
     27 H7         -2.1504   -2.4084   -1.9581 H         1 <0>         0.1432
@<TRIPOS>BOND
     1    1    6 ar
     2    1    2 ar
     3    1   22 1
     4    2    3 ar
     5    2   23 1
     6    3   21 1
     7    3    4 ar
     8    4    5 ar
     9    4   18 1
    10    5    6 ar
    11    5   24 1
    12    6    7 1
    13    7    8 1
    14    7    9 1
    15    7   17 1
    16    9   14 ar
    17    9   10 ar
    18   10   11 ar
    19   10   25 1
    20   11   12 ar
    21   11   16 1
    22   12   13 ar
    23   12   26 1
    24   13   14 ar
    25   13   15 1
    26   14   27 1
    27   18   19 1
    28   19   20 1
    29   19   21 2
@<TRIPOS>MOLECULE
ZINC06473675
   34    37     0     0     0
SMALL
USER_CHARGES

@<TRIPOS>ATOM
      1 C1         -0.0452    1.3199    1.1612 C.ar      1 <0>        -0.1695
      2 C2          0.1381    0.0273    1.6172 C.ar      1 <0>        -0.1086
      3 C3          1.3300   -0.6282    1.3786 C.ar      1 <0>        -0.1522
      4 C4          2.3453    0.0123    0.6798 C.ar      1 <0>         0.1555
      5 C5          2.1579    1.3107    0.2231 C.ar      1 <0>        -0.1405
      6 C6          0.9636    1.9605    0.4652 C.ar      1 <0>        -0.1125
      7 N1          3.5533   -0.6483    0.4370 N.2       1 <0>        -0.5648
      8 C7          3.5942   -2.0186    0.4215 C.2       1 <0>         0.4339
      9 N2          2.5815   -2.8709    0.4189 N.2       1 <0>        -0.7083
     10 C8          2.7562   -4.1739    0.4026 C.2       1 <0>         0.5280
     11 O1          1.8138   -4.9499    0.4000 O.2       1 <0>        -0.5335
     12 C9          4.1593   -4.6485    0.3871 C.2       1 <0>        -0.1576
     13 C10         4.6489   -5.9147    0.3686 C.2       1 <0>        -0.0431
     14 C11         6.0859   -6.1486    0.5538 C.ar      1 <0>        -0.0061
     15 C12         6.8908   -5.1580    1.1313 C.ar      1 <0>        -0.0895
     16 C13         8.2413   -5.3832    1.3037 C.ar      1 <0>         0.0580
     17 C14         8.8044   -6.5969    0.9029 C.ar      1 <0>         0.0315
     18 C15         8.0079   -7.5794    0.3306 C.ar      1 <0>        -0.0712
     19 C16         6.6568   -7.3655    0.1591 C.ar      1 <0>        -0.0767
     20 Br1         5.5765   -8.7109   -0.6148 Br        1 <0>        -0.0252
     21 O2         10.1398   -6.5683    1.1797 O.3       1 <0>        -0.3054
     22 C17        10.4636   -5.1791    1.3739 C.3       1 <0>         0.2116
     23 O3          9.2274   -4.5989    1.8300 O.3       1 <0>        -0.3007
     24 S1          5.0269   -3.0846    0.3921 S.3       1 <0>        -0.1161
     25 H1         -0.9799    1.8287    1.3452 H         1 <0>         0.1068
     26 H2         -0.6516   -0.4700    2.1608 H         1 <0>         0.1079
     27 H3          1.4726   -1.6376    1.7354 H         1 <0>         0.1358
     28 H4          2.9454    1.8116   -0.3202 H         1 <0>         0.1143
     29 H5          0.8171    2.9699    0.1101 H         1 <0>         0.1108
     30 H6          3.9809   -6.7498    0.2175 H         1 <0>         0.1585
     31 H7          6.4551   -4.2195    1.4409 H         1 <0>         0.1625
     32 H8          8.4477   -8.5162    0.0218 H         1 <0>         0.1462
     33 H9         11.2403   -5.0692    2.1308 H         1 <0>         0.1334
     34 H10        10.7764   -4.7239    0.4342 H         1 <0>         0.0868
@<TRIPOS>BOND
     1    1    6 ar
     2    1    2 ar
     3    1   25 1
     4    2    3 ar
     5    2   26 1
     6    3    4 ar
     7    3   27 1
     8    4    5 ar
     9    4    7 1
    10    5    6 ar
    11    5   28 1
    12    6   29 1
    13    7    8 1
    14    8   24 1
    15    8    9 2
    16    9   10 1
    17   10   11 2
    18   10   12 1
    19   12   13 2
    20   12   24 1
    21   13   14 1
    22   13   30 1
    23   14   19 ar
    24   14   15 ar
    25   15   16 ar
    26   15   31 1
    27   16   23 1
    28   16   17 ar
    29   17   18 ar
    30   17   21 1
    31   18   19 ar
    32   18   32 1
    33   19   20 1
    34   21   22 1
    35   22   23 1
    36   22   33 1
    37   22   34 1
@<TRIPOS>MOLECULE
ZINC66577397
   36    37     0     0     0
SMALL
USER_CHARGES

@<TRIPOS>ATOM
      1 C1          2.2502    0.3333    0.9644 C.3       1 <0>        -0.0898
      2 C2          1.2048   -0.6295    0.4632 C.ar      1 <0>        -0.1292
      3 C3          1.4084   -1.3189   -0.7160 C.ar      1 <0>        -0.1148
      4 C4          0.4496   -2.2025   -1.1766 C.ar      1 <0>        -0.1834
      5 C5         -0.7157   -2.3993   -0.4585 C.ar      1 <0>        -0.1109
      6 C6         -0.9258   -1.7131    0.7215 C.ar      1 <0>        -0.1607
      7 C7          0.0376   -0.8287    1.1897 C.ar      1 <0>         0.2473
      8 N1         -0.1692   -0.1370    2.3854 N.2       1 <0>        -1.1243
      9 S1         -0.1866   -0.9570    3.8240 S.o2      1 <0>         2.5881
     10 O1         -1.3214   -1.8116    3.7906 O.2       1 <0>        -1.0334
     11 O2          1.1312   -1.4482    4.0275 O.2       1 <0>        -1.0372
     12 C8         -0.4848    0.2266    5.0948 C.2       1 <0>        -0.6535
     13 C9         -1.6015    0.1676    5.8068 C.2       1 <0>        -0.0140
     14 C10        -1.8516    1.1604    6.8728 C.ar      1 <0>        -0.0483
     15 C11        -0.9168    2.1645    7.1282 C.ar      1 <0>        -0.0960
     16 C12        -1.1560    3.0886    8.1241 C.ar      1 <0>        -0.0920
     17 C13        -2.3204    3.0210    8.8697 C.ar      1 <0>        -0.0897
     18 C14        -3.2515    2.0272    8.6210 C.ar      1 <0>        -0.0939
     19 C15        -3.0261    1.1009    7.6239 C.ar      1 <0>        -0.0963
     20 Br1        -2.6401    4.2909   10.2339 Br        1 <0>        -0.0567
     21 C16        -2.1963   -1.9278    1.5031 C.3       1 <0>        -0.0907
     22 H1          2.9556   -0.1970    1.6042 H         1 <0>         0.0527
     23 H2          2.7824    0.7653    0.1169 H         1 <0>         0.0389
     24 H3          1.7690    1.1279    1.5345 H         1 <0>         0.0734
     25 H4          2.3174   -1.1676   -1.2792 H         1 <0>         0.1014
     26 H5          0.6110   -2.7399   -2.0994 H         1 <0>         0.1004
     27 H6         -1.4626   -3.0901   -0.8210 H         1 <0>         0.1002
     28 H7          0.2422    1.0001    5.2936 H         1 <0>         0.1458
     29 H8         -2.3285   -0.6059    5.6079 H         1 <0>         0.1433
     30 H9         -0.0077    2.2178    6.5475 H         1 <0>         0.1387
     31 H10        -0.4332    3.8662    8.3227 H         1 <0>         0.1348
     32 H11        -4.1580    1.9793    9.2062 H         1 <0>         0.1347
     33 H12        -3.7553    0.3287    7.4278 H         1 <0>         0.1386
     34 H13        -2.0874   -2.8062    2.1392 H         1 <0>         0.0721
     35 H14        -2.3941   -1.0529    2.1224 H         1 <0>         0.0735
     36 H15        -3.0262   -2.0795    0.8129 H         1 <0>         0.0307
@<TRIPOS>BOND
     1    1    2 1
     2    1   22 1
     3    1   23 1
     4    1   24 1
     5    2    7 ar
     6    2    3 ar
     7    3    4 ar
     8    3   25 1
     9    4    5 ar
    10    4   26 1
    11    5    6 ar
    12    5   27 1
    13    6    7 ar
    14    6   21 1
    15    7    8 1
    16    8    9 1
    17    9   10 2
    18    9   11 2
    19    9   12 1
    20   12   13 2
    21   12   28 1
    22   13   14 1
    23   13   29 1
    24   14   19 ar
    25   14   15 ar
    26   15   16 ar
    27   15   30 1
    28   16   17 ar
    29   16   31 1
    30   17   18 ar
    31   17   20 1
    32   18   19 ar
    33   18   32 1
    34   19   33 1
    35   21   34 1
    36   21   35 1
    37   21   36 1
@<TRIPOS>MOLECULE
ZINC21657601
   30    32     0     0     0
SMALL
USER_CHARGES
7-chloro-3-(3,4-difluorophenyl)sulfonyl-8-fluoro-1H-quinolin-4-one
@<TRIPOS>ATOM
      1 C1          1.5104   -3.1450    2.5986 C.ar      1 <0>        -0.0055
      2 C2          0.9866   -3.5827    3.8009 C.ar      1 <0>        -0.1535
      3 C3         -0.3653   -3.8580    3.9073 C.ar      1 <0>         0.1105
      4 C4         -1.1945   -3.6889    2.8085 C.ar      1 <0>         0.0420
      5 C5         -0.6682   -3.2452    1.6082 C.ar      1 <0>        -0.0068
      6 C6          0.6830   -2.9711    1.5052 C.ar      1 <0>        -0.6337
      7 S1          1.3523   -2.4062   -0.0238 S.o2      1 <0>         2.6092
      8 O1          0.4686   -2.8521   -1.0434 O.2       1 <0>        -0.9426
      9 O2          2.7329   -2.7423   -0.0117 O.2       1 <0>        -0.9630
     10 C7          1.2623   -0.6465   -0.0135 C.ar      1 <0>        -0.9252
     11 C8          2.3954    0.0858   -0.0199 C.ar      1 <0>         0.2732
     12 N1          2.3870    1.4405   -0.0129 N.ar      1 <0>        -0.5953
     13 C9          1.2091    2.1552    0.0021 C.ar      1 <0>         0.1702
     14 C10        -0.0179    1.4689    0.0101 C.ar      1 <0>        -0.2035
     15 C11         0.0021   -0.0041    0.0020 C.ar      1 <0>         0.4606
     16 O3         -1.0340   -0.6485    0.0080 O.3       1 <0>        -0.5436
     17 C12        -1.2177    2.1807    0.0197 C.ar      1 <0>        -0.0372
     18 C13        -1.1950    3.5472    0.0325 C.ar      1 <0>        -0.1562
     19 C14         0.0126    4.2334    0.0246 C.ar      1 <0>        -0.0366
     20 C15         1.2116    3.5482    0.0095 C.ar      1 <0>         0.0799
     21 F1          2.3806    4.2253    0.0024 F         1 <0>        -0.1247
     22 Cl1         0.0148    5.9694    0.0333 Cl        1 <0>        -0.0685
     23 F2         -2.5148   -3.9566    2.9102 F         1 <0>        -0.1265
     24 F3         -0.8770   -4.2906    5.0805 F         1 <0>        -0.1259
     25 H1          2.5663   -2.9345    2.5149 H         1 <0>         0.1581
     26 H2          1.6334   -3.7143    4.6557 H         1 <0>         0.1526
     27 H3         -1.3128   -3.1135    0.7518 H         1 <0>         0.1702
     28 H4          3.3455   -0.4276   -0.0313 H         1 <0>         0.1504
     29 H5         -2.1606    1.6540    0.0213 H         1 <0>         0.1376
     30 H6         -2.1239    4.0981    0.0443 H         1 <0>         0.1340
@<TRIPOS>BOND
     1    1    6 ar
     2    1    2 ar
     3    1   25 1
     4    2    3 ar
     5    2   26 1
     6    3    4 ar
     7    3   24 1
     8    4    5 ar
     9    4   23 1
    10    5    6 ar
    11    5   27 1
    12    6    7 1
    13    7    8 2
    14    7    9 2
    15    7   10 1
    16   10   15 ar
    17   10   11 ar
    18   11   12 ar
    19   11   28 1
    20   12   13 ar
    21   13   20 ar
    22   13   14 ar
    23   14   15 ar
    24   14   17 ar
    25   15   16 1
    26   17   18 ar
    27   17   29 1
    28   18   19 ar
    29   18   30 1
    30   19   20 ar
    31   19   22 1
    32   20   21 1
@<TRIPOS>MOLECULE
ZINC37384244
   27    28     0     0     0
SMALL
USER_CHARGES

@<TRIPOS>ATOM
      1 C1         -0.0167    1.3778    0.0096 C.ar      1 <0>        -0.1387
      2 C2          1.1711    2.0855    0.0021 C.ar      1 <0>        -0.0076
      3 C3          2.3776    1.4114   -0.0135 C.ar      1 <0>        -0.6137
      4 C4          2.3973    0.0292   -0.0216 C.ar      1 <0>         0.0069
      5 C5          1.2095   -0.6792   -0.0136 C.ar      1 <0>        -0.1155
      6 C6          0.0021   -0.0041    0.0020 C.ar      1 <0>        -0.0524
      7 Br1         1.2358   -2.5700   -0.0253 Br        1 <0>        -0.0519
      8 S1          3.8908    2.3140   -0.0237 S.o2      1 <0>         2.6082
      9 O1          4.8720    1.4555   -0.5890 O.2       1 <0>        -1.0164
     10 O2          3.5963    3.5945   -0.5648 O.2       1 <0>        -1.0170
     11 N1          4.3271    2.5563    1.5553 N.2       1 <0>        -1.0729
     12 C7          5.4958    3.2500    1.8559 C.ar      1 <0>         0.3215
     13 C8          6.2938    3.7442    0.8276 C.ar      1 <0>        -0.2661
     14 C9          7.4500    4.4305    1.1201 C.ar      1 <0>         0.0039
     15 C10         7.8240    4.6318    2.4525 C.ar      1 <0>        -0.1510
     16 C11         7.0201    4.1340    3.4838 C.ar      1 <0>         0.0606
     17 C12         5.8605    3.4525    3.1828 C.ar      1 <0>        -0.1728
     18 Cl1         7.4790    4.3800    5.1399 Cl        1 <0>        -0.0836
     19 C13         9.0268    5.3452    2.7606 C.1       1 <0>         0.2827
     20 N2          9.9811    5.9111    3.0050 N.1       1 <0>        -0.4646
     21 H1         -0.9592    1.9049    0.0260 H         1 <0>         0.1380
     22 H2          1.1560    3.1654    0.0080 H         1 <0>         0.1452
     23 H3          3.3402   -0.4974   -0.0346 H         1 <0>         0.1475
     24 H4         -0.9257   -0.5568    0.0083 H         1 <0>         0.1355
     25 H5          6.0050    3.5884   -0.2014 H         1 <0>         0.1135
     26 H6          8.0683    4.8131    0.3215 H         1 <0>         0.1247
     27 H7          5.2367    3.0715    3.9779 H         1 <0>         0.1360
@<TRIPOS>BOND
     1    1    6 ar
     2    1    2 ar
     3    1   21 1
     4    2    3 ar
     5    2   22 1
     6    3    4 ar
     7    3    8 1
     8    4    5 ar
     9    4   23 1
    10    5    6 ar
    11    5    7 1
    12    6   24 1
    13    8    9 2
    14    8   10 2
    15    8   11 1
    16   11   12 1
    17   12   17 ar
    18   12   13 ar
    19   13   14 ar
    20   13   25 1
    21   14   15 ar
    22   14   26 1
    23   15   16 ar
    24   15   19 1
    25   16   17 ar
    26   16   18 1
    27   17   27 1
    28   19   20 3
@<TRIPOS>MOLECULE
ZINC44026053
   40    42     0     0     0
SMALL
USER_CHARGES

@<TRIPOS>ATOM
      1 C1         -0.0187    1.5258    0.0104 C.3       1 <0>        -0.1404
      2 C2          0.0021   -0.0041    0.0020 C.3       1 <0>        -0.0135
      3 C3          0.7182   -0.4975   -1.2568 C.3       1 <0>        -0.1415
      4 C4          0.7309   -0.5033    1.2229 C.2       1 <0>         0.1068
      5 C5          0.1905   -1.3383    2.2306 C.2       1 <0>        -0.1679
      6 C6          1.1954   -1.5531    3.1624 C.2       1 <0>         0.1563
      7 N1          2.2826   -0.8836    2.7388 N.pl3     1 <0>        -0.3659
      8 N2          1.9711   -0.2463    1.5329 N.2       1 <0>        -0.2838
      9 C7          3.5774   -0.8349    3.4225 C.3       1 <0>         0.0993
     10 Cl1         1.0729   -2.5084    4.6067 Cl        1 <0>         0.0214
     11 C8         -1.1725   -1.8735    2.2803 C.2       1 <0>        -0.0229
     12 C9         -1.3768   -3.2176    2.4980 C.2       1 <0>         0.0133
     13 C10        -2.6692   -3.9169    2.5711 C.2       1 <0>         0.5175
     14 O1         -3.7790   -3.4293    2.4515 O.2       1 <0>        -0.5037
     15 N3         -2.3662   -5.2138    2.7981 N.am      1 <0>        -0.5401
     16 C11        -0.9993   -5.3339    2.8646 C.2       1 <0>         0.5008
     17 S1         -0.1429   -6.8477    3.1467 S.3       1 <0>        -0.7583
     18 N4         -0.4188   -4.1775    2.6849 N.2       1 <0>        -0.5292
     19 C12        -3.2901   -6.2596    2.9423 C.ar      1 <0>         0.1354
     20 C13        -3.7042   -6.9798    1.8307 C.ar      1 <0>        -0.0702
     21 C14        -4.6138   -8.0095    1.9755 C.ar      1 <0>        -0.1246
     22 C15        -5.1127   -8.3235    3.2263 C.ar      1 <0>        -0.0905
     23 C16        -4.7036   -7.6087    4.3367 C.ar      1 <0>        -0.1520
     24 C17        -3.7884   -6.5805    4.1997 C.ar      1 <0>         0.1183
     25 F1         -3.3841   -5.8854    5.2853 F         1 <0>        -0.1318
     26 H1          1.0039    1.9031    0.0027 H         1 <0>         0.0591
     27 H2         -0.5459    1.8868   -0.8726 H         1 <0>         0.0598
     28 H3         -0.5289    1.8773    0.9072 H         1 <0>         0.0556
     29 H4         -1.0205   -0.3814    0.0098 H         1 <0>         0.0915
     30 H5          1.7408   -0.1202   -1.2645 H         1 <0>         0.0589
     31 H6          0.7330   -1.5874   -1.2628 H         1 <0>         0.0579
     32 H7          0.1910   -0.1364   -2.1398 H         1 <0>         0.0595
     33 H8          4.2058   -1.6525    3.0694 H         1 <0>         0.0783
     34 H9          4.0651    0.1164    3.2096 H         1 <0>         0.0909
     35 H10         3.4246   -0.9322    4.4974 H         1 <0>         0.0865
     36 H11        -2.0169   -1.2137    2.1462 H         1 <0>         0.1355
     37 H12        -3.3160   -6.7352    0.8530 H         1 <0>         0.1309
     38 H13        -4.9360   -8.5698    1.1102 H         1 <0>         0.1324
     39 H14        -5.8239   -9.1289    3.3360 H         1 <0>         0.1331
     40 H15        -5.0955   -7.8558    5.3122 H         1 <0>         0.1371
@<TRIPOS>BOND
     1    1    2 1
     2    1   26 1
     3    1   27 1
     4    1   28 1
     5    2    3 1
     6    2    4 1
     7    2   29 1
     8    3   30 1
     9    3   31 1
    10    3   32 1
    11    4    8 2
    12    4    5 1
    13    5    6 2
    14    5   11 1
    15    6    7 1
    16    6   10 1
    17    7    8 1
    18    7    9 1
    19    9   33 1
    20    9   34 1
    21    9   35 1
    22   11   12 2
    23   11   36 1
    24   12   18 1
    25   12   13 1
    26   13   14 2
    27   13   15 am
    28   15   16 1
    29   15   19 1
    30   16   17 1
    31   16   18 2
    32   19   24 ar
    33   19   20 ar
    34   20   21 ar
    35   20   37 1
    36   21   22 ar
    37   21   38 1
    38   22   23 ar
    39   22   39 1
    40   23   24 ar
    41   23   40 1
    42   24   25 1
@<TRIPOS>MOLECULE
ZINC59404888
   43    46     0     0     0
SMALL
USER_CHARGES

@<TRIPOS>ATOM
      1 C1          0.5330    1.0488   -0.0494 C.3       1 <0>        -0.0930
      2 C2         -0.2238   -0.2541   -0.0193 C.ar      1 <0>        -0.1117
      3 C3         -0.4654   -0.9406   -1.1933 C.ar      1 <0>        -0.1134
      4 C4         -1.1601   -2.1358   -1.1666 C.ar      1 <0>        -0.1669
      5 C5         -1.6154   -2.6479    0.0348 C.ar      1 <0>        -0.1132
      6 C6         -1.3773   -1.9667    1.2120 C.ar      1 <0>        -0.1503
      7 C7         -0.6742   -0.7687    1.1895 C.ar      1 <0>         0.1587
      8 N1         -0.4263   -0.0793    2.3802 N.2       1 <0>        -0.5641
      9 C8         -0.4054   -0.7559    3.5724 C.2       1 <0>         0.4336
     10 N2         -0.3905   -2.0640    3.7745 N.2       1 <0>        -0.7105
     11 C9         -0.3704   -2.5914    4.9787 C.2       1 <0>         0.5284
     12 O1         -0.3564   -3.7996    5.1523 O.2       1 <0>        -0.5386
     13 C10        -0.3652   -1.6387    6.1132 C.2       1 <0>        -0.1751
     14 C11        -0.3458   -1.8778    7.4493 C.2       1 <0>        -0.0227
     15 C12        -0.5528   -0.7748    8.3952 C.ar      1 <0>        -0.0496
     16 C13        -1.1533    0.4191    7.9708 C.ar      1 <0>        -0.0993
     17 C14        -1.3442    1.4494    8.8642 C.ar      1 <0>        -0.1062
     18 C15        -0.9458    1.3170   10.1858 C.ar      1 <0>        -0.1167
     19 C16        -0.3522    0.1432   10.6184 C.ar      1 <0>         0.0604
     20 C17        -0.1576   -0.9061    9.7337 C.ar      1 <0>         0.0792
     21 O2          0.4210   -2.0593   10.1713 O.3       1 <0>        -0.3135
     22 C18         1.8006   -1.9679   10.5331 C.3       1 <0>         0.0583
     23 C19         1.9509   -1.4802   11.9656 C.3       1 <0>        -0.1869
     24 C20         1.4400   -0.0598   12.1497 C.3       1 <0>         0.0606
     25 O3          0.0402    0.0094   11.9189 O.3       1 <0>        -0.3190
     26 S1         -0.3837   -0.0851    5.2275 S.3       1 <0>        -0.1207
     27 H1          1.5999    0.8517    0.0552 H         1 <0>         0.0538
     28 H2          0.3482    1.5545   -0.9972 H         1 <0>         0.0478
     29 H3          0.1983    1.6824    0.7719 H         1 <0>         0.0729
     30 H4         -0.1116   -0.5432   -2.1331 H         1 <0>         0.1099
     31 H5         -1.3480   -2.6704   -2.0860 H         1 <0>         0.1063
     32 H6         -2.1580   -3.5816    0.0521 H         1 <0>         0.1067
     33 H7         -1.7333   -2.3671    2.1498 H         1 <0>         0.1344
     34 H8         -0.1781   -2.8796    7.8162 H         1 <0>         0.1502
     35 H9         -1.4658    0.5307    6.9431 H         1 <0>         0.1505
     36 H10        -1.8071    2.3673    8.5332 H         1 <0>         0.1347
     37 H11        -1.0991    2.1308   10.8790 H         1 <0>         0.1331
     38 H12         2.2622   -2.9508   10.4384 H         1 <0>         0.1047
     39 H13         2.3021   -1.2705    9.8621 H         1 <0>         0.0585
     40 H14         1.3927   -2.1445   12.6253 H         1 <0>         0.0827
     41 H15         3.0048   -1.5150   12.2418 H         1 <0>         0.0885
     42 H16         1.6543    0.2696   13.1664 H         1 <0>         0.1018
     43 H17         1.9485    0.5985   11.4454 H         1 <0>         0.0555
@<TRIPOS>BOND
     1    1    2 1
     2    1   27 1
     3    1   28 1
     4    1   29 1
     5    2    7 ar
     6    2    3 ar
     7    3    4 ar
     8    3   30 1
     9    4    5 ar
    10    4   31 1
    11    5    6 ar
    12    5   32 1
    13    6    7 ar
    14    6   33 1
    15    7    8 1
    16    8    9 1
    17    9   26 1
    18    9   10 2
    19   10   11 1
    20   11   12 2
    21   11   13 1
    22   13   14 2
    23   13   26 1
    24   14   15 1
    25   14   34 1
    26   15   20 ar
    27   15   16 ar
    28   16   17 ar
    29   16   35 1
    30   17   18 ar
    31   17   36 1
    32   18   19 ar
    33   18   37 1
    34   19   25 1
    35   19   20 ar
    36   20   21 1
    37   21   22 1
    38   22   23 1
    39   22   38 1
    40   22   39 1
    41   23   24 1
    42   23   40 1
    43   23   41 1
    44   24   25 1
    45   24   42 1
    46   24   43 1
@<TRIPOS>MOLECULE
ZINC65031369
   38    40     0     0     0
SMALL
USER_CHARGES

@<TRIPOS>ATOM
      1 C1         -0.0184    1.5028    0.0103 C.3       1 <0>        -0.0807
      2 C2          0.0021   -0.0041    0.0020 C.ar      1 <0>        -0.1262
      3 C3          0.0058   -0.6887   -1.1978 C.ar      1 <0>        -0.1081
      4 C4          0.0251   -2.0730   -1.2060 C.ar      1 <0>        -0.0160
      5 C5          0.0402   -2.7744   -0.0120 C.ar      1 <0>        -0.0971
      6 C6          0.0360   -2.0942    1.1898 C.ar      1 <0>        -0.2397
      7 C7          0.0230   -0.7053    1.2004 C.ar      1 <0>         0.2739
      8 N1          0.0251   -0.0143    2.4159 N.2       1 <0>        -1.0770
      9 S1          0.0500   -0.8518    3.8443 S.o2      1 <0>         2.6256
     10 O1         -1.1852   -1.5492    3.9278 O.2       1 <0>        -1.0151
     11 O2          1.3051   -1.5153    3.9042 O.2       1 <0>        -1.0175
     12 C8          0.0461    0.3367    5.1451 C.2       1 <0>        -0.6628
     13 C9         -1.0136    0.8932    5.7883 C.2       1 <0>        -0.0503
     14 C10        -0.7882    1.8120    6.7865 C.2       1 <0>        -0.1252
     15 C11         0.5192    2.1362    7.0993 C.2       1 <0>        -0.1366
     16 S2          1.4335    1.1106    5.9592 S.3       1 <0>         0.2394
     17 C12         1.0246    3.0758    8.1108 C.2       1 <0>         0.1631
     18 C13         2.3359    3.3558    8.3670 C.2       1 <0>        -0.2363
     19 C14         2.3821    4.2993    9.4007 C.2       1 <0>         0.1133
     20 N2          1.1583    4.5798    9.7562 N.2       1 <0>        -0.3175
     21 O3          0.2771    3.8206    8.9486 O.3       1 <0>        -0.0696
     22 C15         3.6321    4.8898   10.0007 C.3       1 <0>        -0.0857
     23 C16         3.5245    2.7549    7.6619 C.3       1 <0>        -0.0893
     24 F1          0.0287   -2.7405   -2.3806 F         1 <0>        -0.1640
     25 H1          1.0042    1.8801    0.0026 H         1 <0>         0.0519
     26 H2         -0.5455    1.8639   -0.8728 H         1 <0>         0.0414
     27 H3         -0.5286    1.8543    0.9071 H         1 <0>         0.0758
     28 H4         -0.0067   -0.1437   -2.1301 H         1 <0>         0.1180
     29 H5          0.0548   -3.8543   -0.0208 H         1 <0>         0.1151
     30 H6          0.0471   -2.6416    2.1207 H         1 <0>         0.1059
     31 H7         -2.0222    0.6173    5.5182 H         1 <0>         0.1525
     32 H8         -1.6125    2.2696    7.3133 H         1 <0>         0.1469
     33 H9          3.9069    5.7915    9.4534 H         1 <0>         0.0913
     34 H10         3.4502    5.1403   11.0458 H         1 <0>         0.0825
     35 H11         4.4434    4.1646    9.9368 H         1 <0>         0.0892
     36 H12         3.7842    3.3692    6.7997 H         1 <0>         0.0795
     37 H13         4.3711    2.7142    8.3472 H         1 <0>         0.0789
     38 H14         3.2778    1.7468    7.3287 H         1 <0>         0.0699
@<TRIPOS>BOND
     1    1    2 1
     2    1   25 1
     3    1   26 1
     4    1   27 1
     5    2    7 ar
     6    2    3 ar
     7    3    4 ar
     8    3   28 1
     9    4    5 ar
    10    4   24 1
    11    5    6 ar
    12    5   29 1
    13    6    7 ar
    14    6   30 1
    15    7    8 1
    16    8    9 1
    17    9   10 2
    18    9   11 2
    19    9   12 1
    20   12   16 1
    21   12   13 2
    22   13   14 1
    23   13   31 1
    24   14   15 2
    25   14   32 1
    26   15   16 1
    27   15   17 1
    28   17   21 1
    29   17   18 2
    30   18   19 1
    31   18   23 1
    32   19   20 2
    33   19   22 1
    34   20   21 1
    35   22   33 1
    36   22   34 1
    37   22   35 1
    38   23   36 1
    39   23   37 1
    40   23   38 1
@<TRIPOS>MOLECULE
ZINC05583034
   37    40     0     0     0
SMALL
USER_CHARGES
2-(acenaphthen-5-yliminomethyl)-6-chloro-4-nitro-phenol
@<TRIPOS>ATOM
      1 C1         -1.0928    1.7796    0.8222 C.ar      1 <0>        -0.1329
      2 C2         -1.1477    3.1746    0.8045 C.ar      1 <0>        -0.0986
      3 C3         -0.0338    3.9039    0.5182 C.ar      1 <0>        -0.0984
      4 C4          1.1465    3.2163    0.2535 C.ar      1 <0>        -0.0595
      5 C5          2.2405    4.0285   -0.0305 C.ar      1 <0>        -0.1222
      6 C6          3.4402    3.4414   -0.3034 C.ar      1 <0>        -0.0729
      7 C7          3.5854    2.0580   -0.3022 C.ar      1 <0>        -0.1831
      8 C8          2.5189    1.2064   -0.0234 C.ar      1 <0>         0.1342
      9 C9          1.2232    1.8134    0.2720 C.ar      1 <0>        -0.0431
     10 C10         0.0618    1.0924    0.5698 C.ar      1 <0>        -0.0743
     11 N1          2.6789   -0.1482   -0.0259 N.2       1 <0>        -0.4514
     12 C11         3.6832   -0.6879    0.6095 C.2       1 <0>         0.2370
     13 C12         3.9243   -2.1342    0.5096 C.ar      1 <0>        -0.2198
     14 C13         4.9997   -2.7172    1.1889 C.ar      1 <0>         0.0364
     15 C14         5.2200   -4.0736    1.0908 C.ar      1 <0>        -0.1725
     16 C15         4.3815   -4.8646    0.3222 C.ar      1 <0>        -0.0025
     17 C16         3.3149   -4.3027   -0.3542 C.ar      1 <0>        -0.1498
     18 C17         3.0741   -2.9398   -0.2632 C.ar      1 <0>         0.3282
     19 Cl1         2.2716   -5.3052   -1.3134 Cl        1 <0>        -0.0743
     20 N2          6.3584   -4.6887    1.8097 N.pl3     1 <0>         0.0678
     21 O1          7.0976   -3.9961    2.4859 O.2       1 <0>        -0.2158
     22 O2          6.5558   -5.8876    1.7250 O.3       1 <0>        -0.2154
     23 C18         1.7670    5.4616    0.0455 C.3       1 <0>        -0.0693
     24 C19         0.2684    5.3782    0.4069 C.3       1 <0>        -0.0718
     25 H1         -1.9915    1.2248    1.0476 H         1 <0>         0.1205
     26 H2         -2.0798    3.6780    1.0146 H         1 <0>         0.1185
     27 H3          4.2951    4.0629   -0.5255 H         1 <0>         0.1171
     28 H4          4.5528    1.6320   -0.5233 H         1 <0>         0.1203
     29 H5          0.0760    0.0128    0.5953 H         1 <0>         0.1366
     30 H6          4.3371   -0.0716    1.2088 H         1 <0>         0.0979
     31 H7          5.6564   -2.1047    1.7891 H         1 <0>         0.1366
     32 H8          4.5622   -5.9270    0.2513 H         1 <0>         0.1363
     33 H9          2.3131    5.9991    0.8208 H         1 <0>         0.0791
     34 H10         1.8962    5.9536   -0.9185 H         1 <0>         0.0790
     35 H11         0.0812    5.8750    1.3589 H         1 <0>         0.0806
     36 H12        -0.3357    5.8291   -0.3805 H         1 <0>         0.0806
     37 O3          2.0241   -2.3873   -0.9225 O.3       1 <0>        -0.5791
@<TRIPOS>BOND
     1    1   10 ar
     2    1    2 ar
     3    1   25 1
     4    2    3 ar
     5    2   26 1
     6    3   24 1
     7    3    4 ar
     8    4    9 ar
     9    4    5 ar
    10    5    6 ar
    11    5   23 1
    12    6    7 ar
    13    6   27 1
    14    7    8 ar
    15    7   28 1
    16    8    9 ar
    17    8   11 1
    18    9   10 ar
    19   10   29 1
    20   11   12 2
    21   12   13 1
    22   12   30 1
    23   13   18 ar
    24   13   14 ar
    25   14   15 ar
    26   14   31 1
    27   15   16 ar
    28   15   20 1
    29   16   17 ar
    30   16   32 1
    31   17   18 ar
    32   17   19 1
    33   18   37 1
    34   20   21 2
    35   20   22 1
    36   23   24 1
    37   23   33 1
    38   23   34 1
    39   24   35 1
    40   24   36 1
@<TRIPOS>MOLECULE
ZINC27516755
   49    53     0     0     0
SMALL
USER_CHARGES
(4-isobutoxyphenyl)BLAHone
@<TRIPOS>ATOM
      1 C1         -6.3971   -5.1584   -1.2809 C.3       1 <0>        -0.1490
      2 C2         -5.6465   -5.4573    0.0184 C.3       1 <0>        -0.0948
      3 C3         -5.4052   -6.9638    0.1330 C.3       1 <0>        -0.1479
      4 C4         -4.3034   -4.7247    0.0116 C.3       1 <0>         0.0598
      5 O1         -4.5303   -3.3138    0.0221 O.3       1 <0>        -0.3133
      6 C5         -3.4331   -2.5126    0.0178 C.ar      1 <0>         0.1356
      7 C6         -3.5831   -1.1323    0.0275 C.ar      1 <0>        -0.1561
      8 C7         -2.4713   -0.3166    0.0222 C.ar      1 <0>        -0.0459
      9 C8         -1.1960   -0.8790    0.0077 C.ar      1 <0>        -0.0346
     10 C9         -1.0486   -2.2649   -0.0074 C.ar      1 <0>        -0.0362
     11 C10        -2.1640   -3.0757    0.0033 C.ar      1 <0>        -0.2146
     12 C11         0.0021   -0.0041    0.0020 C.2       1 <0>         0.2646
     13 N1          1.2725   -0.4292   -0.0117 N.2       1 <0>        -0.5543
     14 C12         2.0820    0.6079   -0.0135 C.2       1 <0>         0.3750
     15 C13         3.5603    0.7247   -0.0251 C.2       1 <0>        -0.2709
     16 C14         4.5599   -0.3427   -0.0365 C.2       1 <0>        -0.0141
     17 C15         5.8566    0.0336   -0.0469 C.2       1 <0>        -0.2307
     18 S1          5.8145    1.8056   -0.0420 S.3       1 <0>         0.0621
     19 C16         4.0543    2.0268   -0.0253 C.2       1 <0>         0.1907
     20 N2          3.2224    3.1130   -0.0145 N.2       1 <0>        -0.5939
     21 C17         1.8837    2.9603   -0.0015 C.2       1 <0>         0.6639
     22 O2          1.1711    3.9457    0.0097 O.3       1 <0>        -0.5550
     23 N3          1.3212    1.7409   -0.0012 N.pl3     1 <0>        -0.3736
     24 N4         -0.0158    1.3116    0.0093 N.2       1 <0>        -0.3086
     25 C18         7.0608   -0.8570   -0.0597 C.3       1 <0>        -0.0212
     26 C19         6.6155   -2.2779    0.3154 C.3       1 <0>        -0.1118
     27 C20         5.3785   -2.6396   -0.5119 C.3       1 <0>        -0.1174
     28 C21         4.1777   -1.8201   -0.0374 C.3       1 <0>        -0.0598
     29 H1         -6.5706   -4.0753   -1.3633 H         1 <0>         0.0639
     30 H2         -7.3628   -5.6851   -1.2759 H         1 <0>         0.0556
     31 H3         -5.7975   -5.4999   -2.1376 H         1 <0>         0.0544
     32 H4         -6.2460   -5.1158    0.8751 H         1 <0>         0.0812
     33 H5         -4.8656   -7.1787    1.0671 H         1 <0>         0.0584
     34 H6         -4.8057   -7.3053   -0.7237 H         1 <0>         0.0585
     35 H7         -6.3709   -7.4905    0.1379 H         1 <0>         0.0638
     36 H8         -3.7257   -5.0098    0.9032 H         1 <0>         0.0631
     37 H9         -3.7407   -4.9989   -0.8930 H         1 <0>         0.0636
     38 H10        -4.5714   -0.6972    0.0388 H         1 <0>         0.1331
     39 H11        -2.5886    0.7570    0.0290 H         1 <0>         0.1391
     40 H12        -0.0618   -2.7034   -0.0231 H         1 <0>         0.1386
     41 H13        -2.0504   -4.1497   -0.0038 H         1 <0>         0.1295
     42 H14         7.5074   -0.8553   -1.0649 H         1 <0>         0.0705
     43 H15         7.7973   -0.4883    0.6694 H         1 <0>         0.0705
     44 H16         7.4292   -2.9860    0.0998 H         1 <0>         0.0647
     45 H17         6.3718   -2.3148    1.3874 H         1 <0>         0.0652
     46 H18         5.5704   -2.4215   -1.5729 H         1 <0>         0.0628
     47 H19         5.1574   -3.7104   -0.3919 H         1 <0>         0.0616
     48 H20         3.8962   -2.1266    0.9808 H         1 <0>         0.0719
     49 H21         3.3268   -1.9783   -0.7163 H         1 <0>         0.0820
@<TRIPOS>BOND
     1    1    2 1
     2    1   29 1
     3    1   30 1
     4    1   31 1
     5    2    3 1
     6    2    4 1
     7    2   32 1
     8    3   33 1
     9    3   34 1
    10    3   35 1
    11    4    5 1
    12    4   36 1
    13    4   37 1
    14    5    6 1
    15    6   11 ar
    16    6    7 ar
    17    7    8 ar
    18    7   38 1
    19    8    9 ar
    20    8   39 1
    21    9   10 ar
    22    9   12 1
    23   10   11 ar
    24   10   40 1
    25   11   41 1
    26   12   24 2
    27   12   13 1
    28   13   14 2
    29   14   23 1
    30   14   15 1
    31   15   19 2
    32   15   16 1
    33   16   28 1
    34   16   17 2
    35   17   18 1
    36   17   25 1
    37   18   19 1
    38   19   20 1
    39   20   21 2
    40   21   22 1
    41   21   23 1
    42   23   24 1
    43   25   26 1
    44   25   42 1
    45   25   43 1
    46   26   27 1
    47   26   44 1
    48   26   45 1
    49   27   28 1
    50   27   46 1
    51   27   47 1
    52   28   48 1
    53   28   49 1
@<TRIPOS>MOLECULE
ZINC38708620
   48    51     0     0     0
SMALL
USER_CHARGES

@<TRIPOS>ATOM
      1 C1         -0.0184    1.5028    0.0103 C.3       1 <0>        -0.1106
      2 C2          0.0021   -0.0041    0.0020 C.ar      1 <0>        -0.0785
      3 C3          0.0057   -0.6876   -1.1995 C.ar      1 <0>        -0.1181
      4 C4          0.0371   -2.0691   -1.2081 C.ar      1 <0>        -0.1050
      5 C5          0.0575   -2.7753   -0.0134 C.ar      1 <0>         0.0828
      6 C6          0.0317   -2.0911    1.1953 C.ar      1 <0>         0.1274
      7 C7          0.0228   -0.6999    1.1947 C.ar      1 <0>        -0.1305
      8 N1         -0.0182   -2.7645    2.4151 N.am      1 <0>        -0.5500
      9 C8          0.6396   -3.8728    2.7259 C.2       1 <0>         0.5724
     10 O1          0.4922   -4.3179    3.8475 O.2       1 <0>        -0.5277
     11 C9          1.5338   -4.6037    1.8172 C.ar      1 <0>        -0.1186
     12 C10         2.7091   -5.1769    2.3129 C.ar      1 <0>        -0.1028
     13 C11         3.5421   -5.8867    1.4655 C.ar      1 <0>         0.2753
     14 C12         3.2108   -6.0328    0.1227 C.ar      1 <0>        -0.2253
     15 C13         2.0569   -5.4619   -0.3747 C.ar      1 <0>        -0.0654
     16 C14         1.2191   -4.7368    0.4612 C.ar      1 <0>         0.0083
     17 O2          0.1227   -4.1295   -0.0523 O.3       1 <0>        -0.2626
     18 N2          4.7199   -6.4579    1.9607 N.2       1 <0>        -1.0784
     19 S1          5.7175   -7.3074    0.9481 S.o2      1 <0>         2.6072
     20 O3          4.9986   -8.4658    0.5475 O.2       1 <0>        -1.0249
     21 O4          6.2384   -6.3728    0.0130 O.2       1 <0>        -1.0210
     22 C15         7.0816   -7.8694    1.9115 C.ar      1 <0>        -0.6136
     23 C16         7.2776   -9.2239    2.1080 C.ar      1 <0>        -0.0226
     24 C17         8.3474   -9.6655    2.8636 C.ar      1 <0>        -0.1431
     25 C18         9.2218   -8.7531    3.4237 C.ar      1 <0>        -0.0683
     26 C19         9.0263   -7.3978    3.2274 C.ar      1 <0>        -0.0664
     27 C20         7.9585   -6.9565    2.4658 C.ar      1 <0>         0.0390
     28 C21         7.7483   -5.4805    2.2464 C.3       1 <0>        -0.1676
     29 Cl1        10.1240   -6.2513    3.9305 Cl        1 <0>        -0.0716
     30 C22        -0.8796   -2.1924    3.4528 C.3       1 <0>         0.0695
     31 H1          1.0042    1.8801    0.0026 H         1 <0>         0.0714
     32 H2         -0.5455    1.8639   -0.8728 H         1 <0>         0.0674
     33 H3         -0.5286    1.8543    0.9071 H         1 <0>         0.0653
     34 H4         -0.0156   -0.1420   -2.1313 H         1 <0>         0.1296
     35 H5          0.0454   -2.6012   -2.1479 H         1 <0>         0.1365
     36 H6          0.0278   -0.1617    2.1311 H         1 <0>         0.1312
     37 H7          2.9667   -5.0656    3.3558 H         1 <0>         0.1311
     38 H8          3.8591   -6.5947   -0.5333 H         1 <0>         0.1113
     39 H9          1.8049   -5.5799   -1.4182 H         1 <0>         0.1225
     40 H10         6.5943   -9.9371    1.6712 H         1 <0>         0.1449
     41 H11         8.4999  -10.7237    3.0167 H         1 <0>         0.1359
     42 H12        10.0573   -9.0982    4.0147 H         1 <0>         0.1344
     43 H13         7.1173   -5.0814    3.0405 H         1 <0>         0.0956
     44 H14         8.7117   -4.9707    2.2571 H         1 <0>         0.0750
     45 H15         7.2640   -5.3217    1.2829 H         1 <0>         0.1133
     46 H16        -1.8810   -2.6140    3.3669 H         1 <0>         0.0618
     47 H17        -0.4697   -2.4269    4.4352 H         1 <0>         0.0884
     48 H18        -0.9288   -1.1106    3.3285 H         1 <0>         0.0752
@<TRIPOS>BOND
     1    1    2 1
     2    1   31 1
     3    1   32 1
     4    1   33 1
     5    2    7 ar
     6    2    3 ar
     7    3    4 ar
     8    3   34 1
     9    4    5 ar
    10    4   35 1
    11    5   17 1
    12    5    6 ar
    13    6    7 ar
    14    6    8 1
    15    7   36 1
    16    8    9 am
    17    8   30 1
    18    9   10 2
    19    9   11 1
    20   11   16 ar
    21   11   12 ar
    22   12   13 ar
    23   12   37 1
    24   13   14 ar
    25   13   18 1
    26   14   15 ar
    27   14   38 1
    28   15   16 ar
    29   15   39 1
    30   16   17 1
    31   18   19 1
    32   19   20 2
    33   19   21 2
    34   19   22 1
    35   22   27 ar
    36   22   23 ar
    37   23   24 ar
    38   23   40 1
    39   24   25 ar
    40   24   41 1
    41   25   26 ar
    42   25   42 1
    43   26   27 ar
    44   26   29 1
    45   27   28 1
    46   28   43 1
    47   28   44 1
    48   28   45 1
    49   30   46 1
    50   30   47 1
    51   30   48 1
@<TRIPOS>MOLECULE
ZINC27065178
   43    46     0     0     0
SMALL
USER_CHARGES

@<TRIPOS>ATOM
      1 C1         -0.0167    1.3832    0.0096 C.ar      1 <0>        -0.0990
      2 C2          1.1641    2.0899    0.0022 C.ar      1 <0>        -0.0787
      3 C3          2.3897    1.3970   -0.0133 C.ar      1 <0>         0.0579
      4 C4          2.3906   -0.0109   -0.0209 C.ar      1 <0>        -0.0813
      5 C5          1.2070   -0.6918   -0.0132 C.ar      1 <0>         0.0198
      6 C6          0.0021   -0.0041    0.0020 C.ar      1 <0>        -0.0876
      7 N1          1.2095   -2.1719   -0.0217 N.pl3     1 <0>        -0.0216
      8 O1          2.3511   -2.8284   -0.0366 O.2       1 <0>        -0.1627
      9 O2          0.0701   -2.8323   -0.0144 O.3       1 <0>        -0.1735
     10 C7          3.6146    2.1123   -0.0216 C.2       1 <0>        -0.2708
     11 C8          3.8273    3.5660   -0.0103 C.2       1 <0>        -0.0825
     12 C9          5.0759    4.0139   -0.0207 C.2       1 <0>        -0.1835
     13 C10         6.1645    3.0193   -0.0430 C.2       1 <0>        -0.0922
     14 S1          5.2795    1.4692   -0.0405 S.3       1 <0>         0.2085
     15 C11         7.5384    3.2352   -0.0571 C.2       1 <0>        -0.0384
     16 C12         8.4165    2.1481   -0.0777 C.2       1 <0>        -0.2041
     17 C13         9.9149    2.1445   -0.0893 C.2       1 <0>         0.5173
     18 O3         10.5640    3.1725   -0.0807 O.2       1 <0>        -0.5442
     19 N2         10.4842    0.9568   -0.1089 N.2       1 <0>        -0.7001
     20 C14         9.7318   -0.1314   -0.1170 C.2       1 <0>         0.3879
     21 N3         10.1355   -1.4304   -0.1364 N.2       1 <0>        -0.5638
     22 C15        11.5644   -1.7532   -0.1516 C.3       1 <0>         0.1044
     23 C16        12.2357   -1.2404    1.1392 C.3       1 <0>        -0.1236
     24 C17        12.2438   -2.4721    2.0784 C.3       1 <0>        -0.1211
     25 C18        12.5430   -3.6407    1.1068 C.3       1 <0>        -0.1206
     26 C19        11.7597   -3.2794   -0.1721 C.3       1 <0>        -0.1059
     27 S2          8.0663    0.5016   -0.0887 S.3       1 <0>        -0.0052
     28 H1         -0.9597    1.9094    0.0260 H         1 <0>         0.1477
     29 H2          1.1508    3.1698    0.0078 H         1 <0>         0.1434
     30 H3          3.3256   -0.5512   -0.0331 H         1 <0>         0.1523
     31 H4         -0.9281   -0.5527    0.0083 H         1 <0>         0.1510
     32 H5          2.9916    4.2499    0.0057 H         1 <0>         0.1329
     33 H6          5.2884    5.0728   -0.0136 H         1 <0>         0.1394
     34 H7          7.9268    4.2430   -0.0521 H         1 <0>         0.1571
     35 H8         12.0391   -1.3042   -1.0240 H         1 <0>         0.0497
     36 H9         13.2541   -0.9102    0.9343 H         1 <0>         0.0557
     37 H10        11.6520   -0.4306    1.5770 H         1 <0>         0.0718
     38 H11        13.0304   -2.3815    2.8275 H         1 <0>         0.0552
     39 H12        11.2709   -2.6030    2.5521 H         1 <0>         0.0633
     40 H13        13.6110   -3.6982    0.8967 H         1 <0>         0.0580
     41 H14        12.1835   -4.5827    1.5210 H         1 <0>         0.0586
     42 H15        10.7914   -3.7798   -0.1709 H         1 <0>         0.0733
     43 H16        12.3300   -3.5710   -1.0541 H         1 <0>         0.0553
@<TRIPOS>BOND
     1    1    6 ar
     2    1    2 ar
     3    1   28 1
     4    2    3 ar
     5    2   29 1
     6    3    4 ar
     7    3   10 1
     8    4    5 ar
     9    4   30 1
    10    5    6 ar
    11    5    7 1
    12    6   31 1
    13    7    8 2
    14    7    9 1
    15   10   14 1
    16   10   11 2
    17   11   12 1
    18   11   32 1
    19   12   13 2
    20   12   33 1
    21   13   14 1
    22   13   15 1
    23   15   16 2
    24   15   34 1
    25   16   27 1
    26   16   17 1
    27   17   18 2
    28   17   19 1
    29   19   20 2
    30   20   21 1
    31   20   27 1
    32   21   22 1
    33   22   26 1
    34   22   23 1
    35   22   35 1
    36   23   24 1
    37   23   36 1
    38   23   37 1
    39   24   25 1
    40   24   38 1
    41   24   39 1
    42   25   26 1
    43   25   40 1
    44   25   41 1
    45   26   42 1
    46   26   43 1
@<TRIPOS>MOLECULE
ZINC39775172
   49    52     0     0     0
SMALL
USER_CHARGES

@<TRIPOS>ATOM
      1 C1         -0.0187    1.5258    0.0104 C.3       1 <0>        -0.1589
      2 C2          0.0021   -0.0041    0.0020 C.3       1 <0>        -0.1037
      3 C3         -1.4333   -0.5336    0.0129 C.3       1 <0>        -0.0746
      4 H1         -1.9862   -0.1019   -0.8214 H         1 <0>         0.1011
      5 C4         -1.4157   -2.0577   -0.1212 C.3       1 <0>        -0.1485
      6 S1         -2.2359   -0.0732    1.5731 S.3       1 <0>        -0.0039
      7 C5         -3.9002   -0.6161    1.3728 C.2       1 <0>         0.4354
      8 N1         -4.2466   -1.2117    0.2380 N.2       1 <0>        -0.6785
      9 C6         -5.4561   -1.7233    0.0629 C.2       1 <0>         0.5253
     10 O1         -5.7471   -2.2176   -1.0093 O.2       1 <0>        -0.5023
     11 C7         -6.4694   -1.7029    1.1633 C.3       1 <0>        -0.2187
     12 H2         -6.5930   -2.7217    1.5305 H         1 <0>         0.1177
     13 C8         -7.8273   -1.2044    0.6797 C.3       1 <0>         0.0639
     14 H3         -8.2625   -1.9308   -0.0066 H         1 <0>         0.1036
     15 C9         -8.7281   -1.0380    1.8864 C.2       1 <0>        -0.3855
     16 C10        -8.1748   -0.6485    3.1093 C.2       1 <0>         0.3017
     17 C11        -9.0620   -0.4437    4.3145 C.3       1 <0>        -0.0836
     18 C12       -10.4613   -0.0316    3.8507 C.3       1 <0>        -0.1122
     19 C13       -11.0013   -1.1102    2.9061 C.3       1 <0>        -0.1353
     20 C14       -10.0536   -1.2703    1.7483 C.2       1 <0>         0.3478
     21 O2        -10.5345   -1.6522    0.5511 O.3       1 <0>        -0.6051
     22 N2         -6.8728   -0.4795    3.2460 N.2       1 <0>        -0.6080
     23 C15        -6.0090   -0.8450    2.3092 C.2       1 <0>         0.4925
     24 N3         -4.7642   -0.4187    2.3680 N.2       1 <0>        -0.6146
     25 C16        -7.6628    0.1204   -0.0196 C.ar      1 <0>        -0.0531
     26 C17        -7.1326    1.2001    0.6617 C.ar      1 <0>        -0.1109
     27 C18        -6.9815    2.4154    0.0209 C.ar      1 <0>        -0.1108
     28 C19        -7.3611    2.5512   -1.3026 C.ar      1 <0>        -0.0404
     29 C20        -7.8917    1.4702   -1.9838 C.ar      1 <0>        -0.1141
     30 C21        -8.0371    0.2539   -1.3436 C.ar      1 <0>        -0.0827
     31 Cl1        -7.1722    4.0774   -2.1079 Cl        1 <0>        -0.0875
     32 H4          1.0039    1.9031    0.0027 H         1 <0>         0.0553
     33 H5         -0.5459    1.8868   -0.8726 H         1 <0>         0.0569
     34 H6         -0.5289    1.8773    0.9072 H         1 <0>         0.0650
     35 H7          0.5123   -0.3556   -0.8948 H         1 <0>         0.0782
     36 H8          0.5293   -0.3651    0.8851 H         1 <0>         0.0698
     37 H9         -0.8628   -2.4894    0.7131 H         1 <0>         0.0552
     38 H10        -2.4383   -2.4349   -0.1135 H         1 <0>         0.0830
     39 H11        -0.9334   -2.3344   -1.0587 H         1 <0>         0.0583
     40 H12        -9.1256   -1.3726    4.8813 H         1 <0>         0.0911
     41 H13        -8.6428    0.3398    4.9457 H         1 <0>         0.0921
     42 H14       -11.1201    0.0618    4.7140 H         1 <0>         0.0758
     43 H15       -10.4064    0.9213    3.3244 H         1 <0>         0.0694
     44 H16       -11.0846   -2.0556    3.4422 H         1 <0>         0.0883
     45 H17       -11.9822   -0.8124    2.5357 H         1 <0>         0.0834
     46 H18        -6.8366    1.0941    1.6949 H         1 <0>         0.1366
     47 H19        -6.5676    3.2589    0.5533 H         1 <0>         0.1266
     48 H20        -8.1885    1.5757   -3.0169 H         1 <0>         0.1280
     49 H21        -8.4468   -0.5913   -1.8767 H         1 <0>         0.1305
@<TRIPOS>BOND
     1    1    2 1
     2    1   32 1
     3    1   33 1
     4    1   34 1
     5    2    3 1
     6    2   35 1
     7    2   36 1
     8    3    4 1
     9    3    5 1
    10    3    6 1
    11    5   37 1
    12    5   38 1
    13    5   39 1
    14    6    7 1
    15    7   24 1
    16    7    8 2
    17    8    9 1
    18    9   10 2
    19    9   11 1
    20   11   12 1
    21   11   23 1
    22   11   13 1
    23   13   14 1
    24   13   15 1
    25   13   25 1
    26   15   20 2
    27   15   16 1
    28   16   17 1
    29   16   22 2
    30   17   18 1
    31   17   40 1
    32   17   41 1
    33   18   19 1
    34   18   42 1
    35   18   43 1
    36   19   20 1
    37   19   44 1
    38   19   45 1
    39   20   21 1
    40   22   23 1
    41   23   24 2
    42   25   30 ar
    43   25   26 ar
    44   26   27 ar
    45   26   46 1
    46   27   28 ar
    47   27   47 1
    48   28   29 ar
    49   28   31 1
    50   29   30 ar
    51   29   48 1
    52   30   49 1
@<TRIPOS>MOLECULE
ZINC65098030
   38    41     0     0     0
SMALL
USER_CHARGES

@<TRIPOS>ATOM
      1 C1         -0.0167    1.3784    0.0096 C.ar      1 <0>        -0.0933
      2 C2          1.1676    2.0879    0.0021 C.ar      1 <0>        -0.0879
      3 C3          2.3842    1.4095   -0.0131 C.ar      1 <0>        -0.0010
      4 C4          2.3998    0.0166   -0.0207 C.ar      1 <0>        -0.1025
      5 C5          1.2087   -0.6850   -0.0131 C.ar      1 <0>         0.0953
      6 C6          0.0021   -0.0041    0.0020 C.ar      1 <0>        -0.1305
      7 F1          1.2212   -2.0359   -0.0208 F         1 <0>        -0.1336
      8 C7          3.6599    2.1685   -0.0217 C.2       1 <0>         0.2947
      9 N1          4.8887    1.6295   -0.0417 N.2       1 <0>        -0.5449
     10 C8          5.7951    2.5817   -0.0448 C.2       1 <0>         0.3796
     11 O1          5.1591    3.7669   -0.0266 O.3       1 <0>        -0.0925
     12 N2          3.7699    3.4748   -0.0167 N.2       1 <0>        -0.3364
     13 C9          7.2561    2.3846   -0.0648 C.2       1 <0>        -0.1371
     14 C10         8.1654    3.5038   -0.0608 C.2       1 <0>         0.0016
     15 C11         9.4778    3.1898   -0.0801 C.2       1 <0>        -0.7027
     16 S1          9.4601    1.4100   -0.1029 S.3       1 <0>         0.3393
     17 C12         7.8051    1.1349   -0.0819 C.2       1 <0>        -0.1655
     18 S2         10.8665    4.2742   -0.0827 S.o2      1 <0>         2.6309
     19 O2         11.9465    3.5497   -0.6553 O.2       1 <0>        -1.0153
     20 O3         10.4138    5.5125   -0.6128 O.2       1 <0>        -1.0132
     21 N3         11.2709    4.5557    1.4983 N.2       1 <0>        -1.0838
     22 C13        12.3479    5.3902    1.8058 C.ar      1 <0>         0.2891
     23 C14        13.0775    5.9893    0.7863 C.ar      1 <0>        -0.2608
     24 C15        14.1416    6.8142    1.0931 C.ar      1 <0>        -0.0543
     25 C16        14.4823    7.0443    2.4134 C.ar      1 <0>        -0.2159
     26 C17        13.7581    6.4495    3.4316 C.ar      1 <0>         0.0146
     27 C18        12.6883    5.6272    3.1311 C.ar      1 <0>        -0.1725
     28 Cl1        14.1898    6.7408    5.0876 Cl        1 <0>        -0.1045
     29 H1         -0.9598    1.9044    0.0260 H         1 <0>         0.1436
     30 H2          1.1508    3.1677    0.0077 H         1 <0>         0.1408
     31 H3          3.3403   -0.5141   -0.0328 H         1 <0>         0.1520
     32 H4         -0.9268   -0.5550    0.0083 H         1 <0>         0.1423
     33 H5          7.8187    4.5266   -0.0440 H         1 <0>         0.1642
     34 H6          7.2910    0.1851   -0.0836 H         1 <0>         0.2059
     35 H7         12.8128    5.8097   -0.2452 H         1 <0>         0.1027
     36 H8         14.7087    7.2800    0.3007 H         1 <0>         0.1136
     37 H9         15.3154    7.6894    2.6504 H         1 <0>         0.1138
     38 H10        12.1204    5.1665    3.9259 H         1 <0>         0.1242
@<TRIPOS>BOND
     1    1    6 ar
     2    1    2 ar
     3    1   29 1
     4    2    3 ar
     5    2   30 1
     6    3    4 ar
     7    3    8 1
     8    4    5 ar
     9    4   31 1
    10    5    6 ar
    11    5    7 1
    12    6   32 1
    13    8   12 2
    14    8    9 1
    15    9   10 2
    16   10   11 1
    17   10   13 1
    18   11   12 1
    19   13   17 2
    20   13   14 1
    21   14   15 2
    22   14   33 1
    23   15   16 1
    24   15   18 1
    25   16   17 1
    26   17   34 1
    27   18   19 2
    28   18   20 2
    29   18   21 1
    30   21   22 1
    31   22   27 ar
    32   22   23 ar
    33   23   24 ar
    34   23   35 1
    35   24   25 ar
    36   24   36 1
    37   25   26 ar
    38   25   37 1
    39   26   27 ar
    40   26   28 1
    41   27   38 1
@<TRIPOS>MOLECULE
ZINC09360344
   41    44     0     0     0
SMALL
USER_CHARGES
(E)-2-(4-oxo-3H-quinazolin-2-yl)-3-[5-[3-(trifluoromethyl)phenyl]-2-furyl]prop-2-enenitrile
@<TRIPOS>ATOM
      1 C1          5.5241   14.1216    0.0435 C.ar      1 <0>        -0.1899
      2 C2          4.1395   14.2328    0.0560 C.ar      1 <0>        -0.0889
      3 C3          3.3450   13.1216    0.0549 C.ar      1 <0>        -0.1439
      4 C4          3.9278   11.8502    0.0409 C.ar      1 <0>         0.1976
      5 C5          5.3372   11.7356    0.0282 C.ar      1 <0>        -0.2552
      6 C6          6.1282   12.8832    0.0296 C.ar      1 <0>        -0.0386
      7 C7          5.9259   10.3889    0.0141 C.ar      1 <0>         0.5168
      8 O1          7.1323   10.2274    0.0033 O.3       1 <0>        -0.5799
      9 N1          5.0767    9.3351    0.0194 N.ar      1 <0>        -0.6735
     10 C8          3.7209    9.5375    0.0270 C.ar      1 <0>         0.4037
     11 N2          3.1772   10.7321    0.0397 N.ar      1 <0>        -0.6153
     12 C9          2.8363    8.3641    0.0271 C.2       1 <0>         0.0390
     13 C10         1.4609    8.5332    0.0403 C.2       1 <0>        -0.0045
     14 C11         0.6146    7.4105    0.0404 C.2       1 <0>         0.0177
     15 C12        -0.7716    7.4370    0.0528 C.2       1 <0>        -0.1640
     16 C13        -1.2001    6.1094    0.0479 C.2       1 <0>        -0.1809
     17 C14        -0.0702    5.3206    0.0327 C.2       1 <0>         0.0249
     18 O2          1.0111    6.1199    0.0335 O.3       1 <0>        -0.1511
     19 C15        -0.0502    3.8452    0.0236 C.ar      1 <0>        -0.0124
     20 C16        -1.2488    3.1268    0.0308 C.ar      1 <0>        -0.0680
     21 C17        -1.2224    1.7481    0.0174 C.ar      1 <0>        -0.1167
     22 C18        -0.0126    1.0758    0.0080 C.ar      1 <0>        -0.0708
     23 C19         1.1782    1.7806    0.0004 C.ar      1 <0>        -0.1772
     24 C20         1.1672    3.1599    0.0083 C.ar      1 <0>        -0.0512
     25 C21         2.4902    1.0394   -0.0161 C.3       1 <0>         0.5082
     26 F1          2.2475   -0.3384   -0.0212 F         1 <0>        -0.1787
     27 F2          3.2097    1.3904   -1.1635 F         1 <0>        -0.1723
     28 F3          3.2315    1.3781    1.1210 F         1 <0>        -0.1723
     29 C22         3.3956    7.0459    0.0135 C.1       1 <0>         0.2717
     30 N3          3.8392    6.0002    0.0027 N.1       1 <0>        -0.4139
     31 H1          6.1327   15.0139    0.0443 H         1 <0>         0.1100
     32 H2          3.6845   15.2122    0.0672 H         1 <0>         0.1121
     33 H3          2.2699   13.2245    0.0650 H         1 <0>         0.1204
     34 H4          7.2051   12.8026    0.0203 H         1 <0>         0.1175
     35 H5          1.0313    9.5458    0.0507 H         1 <0>         0.1925
     36 H6         -1.3988    8.3161    0.0641 H         1 <0>         0.1637
     37 H7         -2.2237    5.7650    0.0541 H         1 <0>         0.1559
     38 H8         -2.1935    3.6500    0.0426 H         1 <0>         0.1399
     39 H9         -2.1480    1.1916    0.0187 H         1 <0>         0.1417
     40 H10         0.0021   -0.0041    0.0020 H         1 <0>         0.1412
     41 H11         2.0973    3.7087    0.0024 H         1 <0>         0.1446
@<TRIPOS>BOND
     1    1    6 ar
     2    1    2 ar
     3    1   31 1
     4    2    3 ar
     5    2   32 1
     6    3    4 ar
     7    3   33 1
     8    4   11 ar
     9    4    5 ar
    10    5    6 ar
    11    5    7 ar
    12    6   34 1
    13    7    8 1
    14    7    9 ar
    15    9   10 ar
    16   10   11 ar
    17   10   12 1
    18   12   13 2
    19   12   29 1
    20   13   14 1
    21   13   35 1
    22   14   18 1
    23   14   15 2
    24   15   16 1
    25   15   36 1
    26   16   17 2
    27   16   37 1
    28   17   18 1
    29   17   19 1
    30   19   24 ar
    31   19   20 ar
    32   20   21 ar
    33   20   38 1
    34   21   22 ar
    35   21   39 1
    36   22   23 ar
    37   22   40 1
    38   23   24 ar
    39   23   25 1
    40   24   41 1
    41   25   26 1
    42   25   27 1
    43   25   28 1
    44   29   30 3
@<TRIPOS>MOLECULE
ZINC27516937
   39    43     0     0     0
SMALL
USER_CHARGES
(2-chlorophenyl)-methyl-BLAHone
@<TRIPOS>ATOM
      1 C1         -0.0187    1.5258    0.0104 C.3       1 <0>        -0.1463
      2 C2          0.0021   -0.0041    0.0020 C.3       1 <0>        -0.0870
      3 H1         -1.0334   -0.3753    0.0053 H         1 <0>         0.0733
      4 C3          0.7422   -0.5145    1.2417 C.3       1 <0>        -0.1124
      5 C4          0.5560   -2.0266    1.3729 C.3       1 <0>        -0.0592
      6 C5          0.9486   -2.6867    0.0542 C.2       1 <0>        -0.0127
      7 C6          1.0148   -1.9646   -1.0849 C.2       1 <0>        -0.2294
      8 S1          1.4999   -3.1277   -2.3314 S.3       1 <0>         0.0621
      9 C7          1.6107   -4.5752   -1.3116 C.2       1 <0>         0.1910
     10 C8          1.2688   -4.1102   -0.0441 C.2       1 <0>        -0.2710
     11 C9          1.2793   -5.1327    1.0299 C.2       1 <0>         0.3740
     12 N1          1.0184   -5.0713    2.3179 N.2       1 <0>        -0.5506
     13 C10         1.1713   -6.2855    2.8629 C.2       1 <0>         0.2460
     14 N2          1.5322   -7.1388    1.9287 N.2       1 <0>        -0.2759
     15 N3          1.6113   -6.4208    0.7246 N.pl3     1 <0>        -0.3753
     16 C11         1.9289   -6.7821   -0.5292 C.2       1 <0>         0.6641
     17 O1          2.2196   -7.9400   -0.7607 O.3       1 <0>        -0.5533
     18 N4          1.9321   -5.8862   -1.5357 N.2       1 <0>        -0.5946
     19 C12         0.9660   -6.6160    4.2948 C.ar      1 <0>         0.0116
     20 C13         0.5827   -5.6227    5.1939 C.ar      1 <0>        -0.0680
     21 C14         0.3932   -5.9355    6.5245 C.ar      1 <0>        -0.1243
     22 C15         0.5829   -7.2325    6.9673 C.ar      1 <0>        -0.1031
     23 C16         0.9637   -8.2228    6.0806 C.ar      1 <0>        -0.1191
     24 C17         1.1504   -7.9227    4.7448 C.ar      1 <0>        -0.0164
     25 Cl1         1.6204   -9.1683    3.6307 Cl        1 <0>        -0.0309
     26 C18         0.7371   -0.5023   -1.2508 C.3       1 <0>        -0.0145
     27 H2         -0.5456    1.8804    0.9085 H         1 <0>         0.0539
     28 H3         -0.5388    1.8903   -0.8877 H         1 <0>         0.0536
     29 H4          1.0133    1.9065    0.0164 H         1 <0>         0.0543
     30 H5          1.8145   -0.2877    1.1478 H         1 <0>         0.0626
     31 H6          0.3400   -0.0202    2.1383 H         1 <0>         0.0620
     32 H7          1.1949   -2.4057    2.1842 H         1 <0>         0.0819
     33 H8         -0.4970   -2.2479    1.6015 H         1 <0>         0.0718
     34 H9          0.4346   -4.6097    4.8499 H         1 <0>         0.1439
     35 H10         0.0958   -5.1662    7.2217 H         1 <0>         0.1313
     36 H11         0.4333   -7.4723    8.0096 H         1 <0>         0.1307
     37 H12         1.1107   -9.2335    6.4318 H         1 <0>         0.1346
     38 H13         0.1058   -0.3370   -2.1363 H         1 <0>         0.0702
     39 H14         1.6816    0.0497   -1.3656 H         1 <0>         0.0711
@<TRIPOS>BOND
     1    1    2 1
     2    1   27 1
     3    1   28 1
     4    1   29 1
     5    2    3 1
     6    2   26 1
     7    2    4 1
     8    4    5 1
     9    4   30 1
    10    4   31 1
    11    5    6 1
    12    5   32 1
    13    5   33 1
    14    6   10 1
    15    6    7 2
    16    7    8 1
    17    7   26 1
    18    8    9 1
    19    9   18 1
    20    9   10 2
    21   10   11 1
    22   11   15 1
    23   11   12 2
    24   12   13 1
    25   13   14 2
    26   13   19 1
    27   14   15 1
    28   15   16 1
    29   16   17 1
    30   16   18 2
    31   19   24 ar
    32   19   20 ar
    33   20   21 ar
    34   20   34 1
    35   21   22 ar
    36   21   35 1
    37   22   23 ar
    38   22   36 1
    39   23   24 ar
    40   23   37 1
    41   24   25 1
    42   26   38 1
    43   26   39 1
@<TRIPOS>MOLECULE
ZINC39866976
   47    50     0     0     0
SMALL
USER_CHARGES

@<TRIPOS>ATOM
      1 C1         -0.0366    1.4646   -0.8307 C.3       1 <0>        -0.1173
      2 C2         -0.0128   -0.0352   -0.6850 C.ar      1 <0>        -0.0483
      3 C3         -0.0529   -0.8395   -1.8085 C.ar      1 <0>        -0.1469
      4 C4         -0.0310   -2.2152   -1.6749 C.ar      1 <0>        -0.0176
      5 C5          0.0314   -2.7865   -0.4177 C.ar      1 <0>        -0.6277
      6 C6          0.0724   -1.9822    0.7058 C.ar      1 <0>        -0.0176
      7 C7          0.0549   -0.6065    0.5720 C.ar      1 <0>        -0.1468
      8 S1          0.0581   -4.5401   -0.2473 S.o2      1 <0>         2.6153
      9 O1         -0.4320   -4.8291    1.0549 O.2       1 <0>        -1.0108
     10 O2         -0.5401   -5.0714   -1.4216 O.2       1 <0>        -1.0117
     11 N1          1.6458   -5.0102   -0.2706 N.2       1 <0>        -1.0158
     12 C8          1.9709   -6.3432   -0.1544 C.2       1 <0>         0.4301
     13 C9          3.2558   -6.8670   -0.1536 C.2       1 <0>        -0.2493
     14 C10         3.0863   -8.3253   -0.0055 C.2       1 <0>        -0.0489
     15 C11         1.7370   -8.5365    0.0676 C.2       1 <0>        -0.0181
     16 O3          1.1002   -7.3520   -0.0172 O.3       1 <0>        -0.2326
     17 C12         1.0839   -9.8498    0.2197 C.ar      1 <0>         0.0108
     18 C13         1.5398  -10.7533    1.1836 C.ar      1 <0>        -0.0945
     19 C14         0.9236  -11.9795    1.3203 C.ar      1 <0>        -0.1201
     20 C15        -0.1432  -12.3164    0.5058 C.ar      1 <0>        -0.1252
     21 C16        -0.5999  -11.4270   -0.4512 C.ar      1 <0>        -0.1208
     22 C17         0.0023  -10.1947   -0.5954 C.ar      1 <0>        -0.1036
     23 C18         4.1553   -9.3479    0.0521 C.ar      1 <0>         0.0000
     24 C19         4.2895  -10.2797   -0.9776 C.ar      1 <0>        -0.0999
     25 C20         5.2877  -11.2302   -0.9180 C.ar      1 <0>        -0.1211
     26 C21         6.1543  -11.2609    0.1600 C.ar      1 <0>        -0.1270
     27 C22         6.0262  -10.3399    1.1845 C.ar      1 <0>        -0.1214
     28 C23         5.0362   -9.3802    1.1334 C.ar      1 <0>        -0.1035
     29 C24         4.4867   -6.1448   -0.2720 C.1       1 <0>         0.3381
     30 N2          5.4631   -5.5719   -0.3660 N.1       1 <0>        -0.4993
     31 H1          0.9841    1.8376   -0.9159 H         1 <0>         0.0741
     32 H2         -0.5977    1.7338   -1.7255 H         1 <0>         0.0679
     33 H3         -0.5133    1.9071    0.0440 H         1 <0>         0.0679
     34 H4         -0.1017   -0.3931   -2.7907 H         1 <0>         0.1271
     35 H5         -0.0631   -2.8436   -2.5526 H         1 <0>         0.1378
     36 H6          0.1209   -2.4286    1.6881 H         1 <0>         0.1379
     37 H7          0.0907    0.0220    1.4496 H         1 <0>         0.1271
     38 H8          2.3727  -10.4920    1.8194 H         1 <0>         0.1248
     39 H9          1.2748  -12.6788    2.0647 H         1 <0>         0.1212
     40 H10        -0.6216  -13.2782    0.6172 H         1 <0>         0.1179
     41 H11        -1.4325  -11.6970   -1.0838 H         1 <0>         0.1213
     42 H12        -0.3580   -9.4999   -1.3396 H         1 <0>         0.1268
     43 H13         3.6131  -10.2572   -1.8193 H         1 <0>         0.1221
     44 H14         5.3926  -11.9521   -1.7145 H         1 <0>         0.1189
     45 H15         6.9339  -12.0071    0.2022 H         1 <0>         0.1162
     46 H16         6.7056  -10.3692    2.0235 H         1 <0>         0.1191
     47 H17         4.9402   -8.6588    1.9314 H         1 <0>         0.1233
@<TRIPOS>BOND
     1    1    2 1
     2    1   31 1
     3    1   32 1
     4    1   33 1
     5    2    7 ar
     6    2    3 ar
     7    3    4 ar
     8    3   34 1
     9    4    5 ar
    10    4   35 1
    11    5    6 ar
    12    5    8 1
    13    6    7 ar
    14    6   36 1
    15    7   37 1
    16    8    9 2
    17    8   10 2
    18    8   11 1
    19   11   12 1
    20   12   16 1
    21   12   13 2
    22   13   14 1
    23   13   29 1
    24   14   15 2
    25   14   23 1
    26   15   16 1
    27   15   17 1
    28   17   22 ar
    29   17   18 ar
    30   18   19 ar
    31   18   38 1
    32   19   20 ar
    33   19   39 1
    34   20   21 ar
    35   20   40 1
    36   21   22 ar
    37   21   41 1
    38   22   42 1
    39   23   28 ar
    40   23   24 ar
    41   24   25 ar
    42   24   43 1
    43   25   26 ar
    44   25   44 1
    45   26   27 ar
    46   26   45 1
    47   27   28 ar
    48   27   46 1
    49   28   47 1
    50   29   30 3
@<TRIPOS>MOLECULE
ZINC05698520
   39    42     0     0     0
SMALL
USER_CHARGES

@<TRIPOS>ATOM
      1 C1         -0.4573    1.4647    0.4446 C.3       1 <0>        -0.1058
      2 C2         -0.3352   -0.0334    0.3357 C.ar      1 <0>        -0.1203
      3 C3         -0.2669   -0.6295   -0.9118 C.ar      1 <0>        -0.1034
      4 C4         -0.1546   -1.9992   -1.0202 C.ar      1 <0>        -0.1198
      5 C5         -0.1098   -2.7873    0.1355 C.ar      1 <0>         0.1319
      6 C6         -0.1794   -2.1767    1.3928 C.ar      1 <0>        -0.1593
      7 C7         -0.2862   -0.8053    1.4838 C.ar      1 <0>        -0.0949
      8 N1          0.0007   -4.1418    0.0370 N.2       1 <0>        -0.5040
      9 C8          0.8505   -4.7915    0.8072 C.2       1 <0>         0.4667
     10 N2          1.1028   -6.1155    0.8505 N.2       1 <0>        -0.6329
     11 C9          1.9674   -6.6250    1.6588 C.2       1 <0>         0.4882
     12 O1          2.2085   -7.9554    1.6889 O.3       1 <0>        -0.6006
     13 C10         2.6855   -5.6878    2.5533 C.2       1 <0>        -0.0327
     14 C11         3.6563   -5.9428    3.5121 C.2       1 <0>        -0.0854
     15 C12         4.0801   -7.2577    4.0336 C.ar      1 <0>        -0.0918
     16 C13         3.6829   -8.5651    3.7630 C.ar      1 <0>        -0.0566
     17 C14         4.2817   -9.6137    4.4304 C.ar      1 <0>        -0.1544
     18 C15         5.2733   -9.3663    5.3657 C.ar      1 <0>        -0.0861
     19 C16         5.6746   -8.0745    5.6416 C.ar      1 <0>        -0.1532
     20 C17         5.0843   -7.0040    4.9799 C.ar      1 <0>         0.1418
     21 N3          5.2959   -5.6332    5.0661 N.am      1 <0>        -0.5516
     22 C18         4.4918   -4.9603    4.2253 C.2       1 <0>         0.5560
     23 O2          4.4575   -3.7522    4.0806 O.2       1 <0>        -0.4902
     24 C19         6.2742   -5.0025    5.9557 C.3       1 <0>         0.0866
     25 S1          1.9579   -4.1343    2.0460 S.3       1 <0>        -0.1806
     26 H1          0.5375    1.9085    0.4827 H         1 <0>         0.0641
     27 H2         -0.9939    1.8495   -0.4226 H         1 <0>         0.0609
     28 H3         -1.0039    1.7196    1.3526 H         1 <0>         0.0608
     29 H4         -0.3020   -0.0199   -1.8026 H         1 <0>         0.1199
     30 H5         -0.1018   -2.4628   -1.9942 H         1 <0>         0.1249
     31 H6         -0.1454   -2.7779    2.2894 H         1 <0>         0.1246
     32 H7         -0.3355   -0.3321    2.4534 H         1 <0>         0.1177
     33 H8          2.9093   -8.7571    3.0342 H         1 <0>         0.1878
     34 H9          3.9768  -10.6289    4.2236 H         1 <0>         0.1251
     35 H10         5.7369  -10.1924    5.8845 H         1 <0>         0.1235
     36 H11         6.4485   -7.8953    6.3733 H         1 <0>         0.1199
     37 H12         7.2290   -4.9096    5.4382 H         1 <0>         0.0636
     38 H13         5.9190   -4.0129    6.2432 H         1 <0>         0.0818
     39 H14         6.4025   -5.6158    6.8477 H         1 <0>         0.0778
@<TRIPOS>BOND
     1    1    2 1
     2    1   26 1
     3    1   27 1
     4    1   28 1
     5    2    7 ar
     6    2    3 ar
     7    3    4 ar
     8    3   29 1
     9    4    5 ar
    10    4   30 1
    11    5    6 ar
    12    5    8 1
    13    6    7 ar
    14    6   31 1
    15    7   32 1
    16    8    9 2
    17    9   25 1
    18    9   10 1
    19   10   11 2
    20   11   12 1
    21   11   13 1
    22   13   14 2
    23   13   25 1
    24   14   22 1
    25   14   15 1
    26   15   20 ar
    27   15   16 ar
    28   16   17 ar
    29   16   33 1
    30   17   18 ar
    31   17   34 1
    32   18   19 ar
    33   18   35 1
    34   19   20 ar
    35   19   36 1
    36   20   21 1
    37   21   22 am
    38   21   24 1
    39   22   23 2
    40   24   37 1
    41   24   38 1
    42   24   39 1
@<TRIPOS>MOLECULE
ZINC02718463
   44    47     0     0     0
SMALL
USER_CHARGES

@<TRIPOS>ATOM
      1 C1         -0.0184    1.5028    0.0103 C.3       1 <0>        -0.1185
      2 C2          0.0021   -0.0041    0.0020 C.ar      1 <0>        -0.0813
      3 C3          0.0057   -0.6875   -1.2004 C.ar      1 <0>        -0.0982
      4 C4          0.0239   -2.0683   -1.2114 C.ar      1 <0>        -0.1120
      5 C5          0.0391   -2.7706   -0.0132 C.ar      1 <0>         0.1423
      6 C6          0.0359   -2.0815    1.1922 C.ar      1 <0>        -0.1017
      7 C7          0.0229   -0.7003    1.1964 C.ar      1 <0>        -0.0701
      8 C8          0.0256    0.0486    2.5042 C.3       1 <0>        -0.1177
      9 N1          0.0572   -4.1710   -0.0209 N.pl3     1 <0>        -0.3028
     10 C9         -0.5660   -4.9728   -0.9297 C.2       1 <0>         0.3590
     11 C10        -0.2824   -6.2974   -0.5575 C.2       1 <0>        -0.3474
     12 C11         0.5255   -6.2408    0.5967 C.2       1 <0>         0.1431
     13 N2          0.7237   -4.9883    0.9004 N.2       1 <0>        -0.2638
     14 C12        -0.8129   -7.3530   -1.3409 C.2       1 <0>         0.5870
     15 O1         -0.5922   -8.5163   -1.0538 O.2       1 <0>        -0.5137
     16 N3         -1.5702   -7.0353   -2.4145 N.am      1 <0>        -0.6292
     17 H1         -1.9449   -7.7396   -2.9663 H         1 <0>         0.4265
     18 C13        -1.8107   -5.7282   -2.7256 C.2       1 <0>         0.4096
     19 N4         -1.3249   -4.7394   -2.0081 N.2       1 <0>        -0.5375
     20 S1         -2.8028   -5.3544   -4.1330 S.3       1 <0>         0.0269
     21 C14        -2.8556   -3.5414   -4.1636 C.3       1 <0>        -0.0627
     22 C15        -3.6844   -3.0827   -5.3357 C.ar      1 <0>        -0.1197
     23 C16        -3.0844   -2.8604   -6.5636 C.ar      1 <0>         0.1361
     24 C17        -3.8469   -2.4390   -7.6396 C.ar      1 <0>        -0.1482
     25 C18        -5.2064   -2.2405   -7.4877 C.ar      1 <0>        -0.0626
     26 C19        -5.8053   -2.4624   -6.2621 C.ar      1 <0>        -0.1190
     27 C20        -5.0456   -2.8891   -5.1870 C.ar      1 <0>         0.0081
     28 Cl1        -5.8001   -3.1744   -3.6498 Cl        1 <0>        -0.0393
     29 F1         -1.7556   -3.0541   -6.7115 F         1 <0>        -0.1219
     30 H2          1.0042    1.8801    0.0026 H         1 <0>         0.0744
     31 H3         -0.5455    1.8639   -0.8728 H         1 <0>         0.0693
     32 H4         -0.5286    1.8543    0.9071 H         1 <0>         0.0718
     33 H5         -0.0061   -0.1408   -2.1317 H         1 <0>         0.1335
     34 H6          0.0260   -2.6014   -2.1506 H         1 <0>         0.1324
     35 H7          0.0477   -2.6249    2.1255 H         1 <0>         0.1345
     36 H8         -1.0013    0.2154    2.8294 H         1 <0>         0.0745
     37 H9          0.5545   -0.5363    3.2567 H         1 <0>         0.0700
     38 H10         0.5254    1.0082    2.3724 H         1 <0>         0.0738
     39 H11         0.9176   -7.0909    1.1353 H         1 <0>         0.2059
     40 H12        -3.3006   -3.1752   -3.2385 H         1 <0>         0.1236
     41 H13        -1.8428   -3.1500   -4.2595 H         1 <0>         0.1194
     42 H14        -3.3795   -2.2650   -8.5975 H         1 <0>         0.1490
     43 H15        -5.8009   -1.9114   -8.3272 H         1 <0>         0.1492
     44 H16        -6.8675   -2.3066   -6.1444 H         1 <0>         0.1473
@<TRIPOS>BOND
     1    1    2 1
     2    1   30 1
     3    1   31 1
     4    1   32 1
     5    2    7 ar
     6    2    3 ar
     7    3    4 ar
     8    3   33 1
     9    4    5 ar
    10    4   34 1
    11    5    6 ar
    12    5    9 1
    13    6    7 ar
    14    6   35 1
    15    7    8 1
    16    8   36 1
    17    8   37 1
    18    8   38 1
    19    9   13 1
    20    9   10 1
    21   10   19 1
    22   10   11 2
    23   11   12 1
    24   11   14 1
    25   12   13 2
    26   12   39 1
    27   14   15 2
    28   14   16 am
    29   16   17 1
    30   16   18 1
    31   18   19 2
    32   18   20 1
    33   20   21 1
    34   21   22 1
    35   21   40 1
    36   21   41 1
    37   22   27 ar
    38   22   23 ar
    39   23   24 ar
    40   23   29 1
    41   24   25 ar
    42   24   42 1
    43   25   26 ar
    44   25   43 1
    45   26   27 ar
    46   26   44 1
    47   27   28 1
@<TRIPOS>MOLECULE
ZINC27520705
   49    53     0     0     0
SMALL
USER_CHARGES
(5Z)-5-[[1-(4-chlorophenyl)-2,5-diphenyl-pyrrol-3-yl]methylene]imidazolidine-2,4-dione
@<TRIPOS>ATOM
      1 C1         -5.9412   -3.7462    0.2505 C.ar      1 <0>        -0.1232
      2 C2         -4.7595   -3.6346   -0.4604 C.ar      1 <0>        -0.1125
      3 C3         -4.1277   -2.4128   -0.5668 C.ar      1 <0>        -0.1008
      4 C4         -4.6835   -1.2876    0.0444 C.ar      1 <0>        -0.0129
      5 C5         -5.8734   -1.4082    0.7643 C.ar      1 <0>        -0.1226
      6 C6         -6.4972   -2.6350    0.8592 C.ar      1 <0>        -0.1151
      7 C7         -4.0118    0.0245   -0.0649 C.2       1 <0>         0.0634
      8 C8         -2.7038    0.2187   -0.3762 C.2       1 <0>        -0.1674
      9 C9         -2.4671    1.6159   -0.3753 C.2       1 <0>        -0.0633
     10 C10        -3.6775    2.2320   -0.0484 C.2       1 <0>         0.0569
     11 N1         -4.6092    1.2477    0.1323 N.pl3     1 <0>        -0.3927
     12 C11        -5.9530    1.4516    0.4697 C.ar      1 <0>         0.1346
     13 C12        -6.9533    1.1507   -0.4453 C.ar      1 <0>        -0.0949
     14 C13        -8.2780    1.3478   -0.1081 C.ar      1 <0>        -0.0977
     15 C14        -8.6083    1.8550    1.1364 C.ar      1 <0>        -0.0293
     16 C15        -7.6131    2.1607    2.0482 C.ar      1 <0>        -0.0969
     17 C16        -6.2872    1.9605    1.7179 C.ar      1 <0>        -0.0953
     18 Cl1       -10.2741    2.1089    1.5543 Cl        1 <0>        -0.0638
     19 C17        -3.9093    3.6823    0.0759 C.ar      1 <0>        -0.0134
     20 C18        -4.9270    4.2966   -0.6599 C.ar      1 <0>        -0.1032
     21 C19        -5.1415    5.6530   -0.5339 C.ar      1 <0>        -0.1210
     22 C20        -4.3449    6.4077    0.3096 C.ar      1 <0>        -0.1167
     23 C21        -3.3318    5.8076    1.0368 C.ar      1 <0>        -0.1172
     24 C22        -3.1088    4.4513    0.9258 C.ar      1 <0>        -0.0885
     25 C23        -1.1963    2.2849   -0.6568 C.2       1 <0>        -0.1314
     26 C24        -0.0330    1.5805   -0.6164 C.2       1 <0>         0.0523
     27 C25         1.3016    2.0411   -1.0153 C.2       1 <0>         0.5101
     28 O1          1.5959    3.1402   -1.4490 O.3       1 <0>        -0.5537
     29 N2          2.1368    1.0036   -0.8059 N.2       1 <0>        -0.7117
     30 C26         1.4512   -0.0428   -0.3206 C.2       1 <0>         0.6573
     31 O2          1.9438   -1.1181   -0.0371 O.2       1 <0>        -0.5968
     32 N3          0.1464    0.2559   -0.1899 N.am      1 <0>        -0.7216
     33 H1         -6.4316   -4.7050    0.3311 H         1 <0>         0.1208
     34 H2         -4.3306   -4.5059   -0.9329 H         1 <0>         0.1260
     35 H3         -3.2050   -2.3272   -1.1215 H         1 <0>         0.1297
     36 H4         -6.3065   -0.5423    1.2430 H         1 <0>         0.1206
     37 H5         -7.4197   -2.7290    1.4130 H         1 <0>         0.1202
     38 H6         -1.9766   -0.5517   -0.5862 H         1 <0>         0.1493
     39 H7         -6.6958    0.7590   -1.4183 H         1 <0>         0.1390
     40 H8         -9.0565    1.1101   -0.8178 H         1 <0>         0.1418
     41 H9         -7.8736    2.5564    3.0187 H         1 <0>         0.1420
     42 H10        -5.5109    2.1992    2.4298 H         1 <0>         0.1397
     43 H11        -5.5462    3.7097   -1.3221 H         1 <0>         0.1150
     44 H12        -5.9302    6.1283   -1.0982 H         1 <0>         0.1203
     45 H13        -4.5146    7.4704    0.4004 H         1 <0>         0.1205
     46 H14        -2.7145    6.4029    1.6933 H         1 <0>         0.1253
     47 H15        -2.3177    3.9844    1.4936 H         1 <0>         0.1295
     48 H16        -1.1817    3.3573   -0.9011 H         1 <0>         0.1364
     49 H17        -0.7146   -0.3284    0.1669 H         1 <0>         0.4129
@<TRIPOS>BOND
     1    1    6 ar
     2    1    2 ar
     3    1   33 1
     4    2    3 ar
     5    2   34 1
     6    3    4 ar
     7    3   35 1
     8    4    5 ar
     9    4    7 1
    10    5    6 ar
    11    5   36 1
    12    6   37 1
    13    7   11 1
    14    7    8 2
    15    8    9 1
    16    8   38 1
    17    9   10 2
    18    9   25 1
    19   10   11 1
    20   10   19 1
    21   11   12 1
    22   12   17 ar
    23   12   13 ar
    24   13   14 ar
    25   13   39 1
    26   14   15 ar
    27   14   40 1
    28   15   16 ar
    29   15   18 1
    30   16   17 ar
    31   16   41 1
    32   17   42 1
    33   19   24 ar
    34   19   20 ar
    35   20   21 ar
    36   20   43 1
    37   21   22 ar
    38   21   44 1
    39   22   23 ar
    40   22   45 1
    41   23   24 ar
    42   23   46 1
    43   24   47 1
    44   25   26 2
    45   25   48 1
    46   26   32 1
    47   26   27 1
    48   27   28 1
    49   27   29 2
    50   29   30 1
    51   30   31 2
    52   30   32 am
    53   32   49 1
@<TRIPOS>MOLECULE
ZINC02067490
   48    52     0     0     0
SMALL
USER_CHARGES

@<TRIPOS>ATOM
      1 C1         -0.0184    1.5028    0.0103 C.3       1 <0>        -0.1128
      2 C2          0.0021   -0.0041    0.0020 C.ar      1 <0>        -0.0229
      3 C3          0.0058   -0.6890   -1.1928 C.ar      1 <0>        -0.1258
      4 C4          0.0240   -2.0755   -1.2074 C.ar      1 <0>        -0.0837
      5 C5          0.0392   -2.7881   -0.0256 C.ar      1 <0>        -0.1019
      6 C6          0.0362   -2.1162    1.1863 C.ar      1 <0>         0.0162
      7 C7          0.0231   -0.7117    1.2060 C.ar      1 <0>         0.0199
      8 N1          0.0301   -0.3399    2.5121 N.2       1 <0>        -0.4400
      9 C8          0.0515   -1.4172    3.2562 C.2       1 <0>         0.2861
     10 O1          0.0478   -2.5159    2.4776 O.3       1 <0>        -0.2091
     11 C9          0.0660   -1.4261    4.7328 C.ar      1 <0>        -0.0455
     12 C10         0.0944   -2.6355    5.4242 C.ar      1 <0>        -0.0491
     13 C11         0.1079   -2.6350    6.8184 C.ar      1 <0>         0.0695
     14 C12         0.0928   -1.4224    7.5168 C.ar      1 <0>        -0.1076
     15 C13         0.0646   -0.2275    6.8308 C.ar      1 <0>        -0.1311
     16 C14         0.0569   -0.2177    5.4433 C.ar      1 <0>         0.1607
     17 O2          0.0353    0.9628    4.7734 O.3       1 <0>        -0.4714
     18 N2          0.1353   -3.8182    7.5027 N.2       1 <0>        -0.4643
     19 C15         0.9491   -3.9692    8.5160 C.2       1 <0>         0.2249
     20 C16         0.9776   -5.1951    9.2249 C.2       1 <0>        -0.0028
     21 C17         1.7794   -5.4856   10.3105 C.2       1 <0>        -0.1392
     22 C18         1.4823   -6.7982   10.6914 C.2       1 <0>        -0.1918
     23 C19         0.5220   -7.2571    9.8364 C.2       1 <0>         0.0568
     24 O3          0.2214   -6.2812    8.9609 O.3       1 <0>        -0.1403
     25 C20        -0.0893   -8.6005    9.8705 C.ar      1 <0>        -0.0134
     26 C21         0.3029   -9.5254   10.8413 C.ar      1 <0>        -0.0889
     27 C22        -0.2719  -10.7787   10.8679 C.ar      1 <0>        -0.1024
     28 C23        -1.2356  -11.1218    9.9358 C.ar      1 <0>        -0.0995
     29 C24        -1.6296  -10.2105    8.9706 C.ar      1 <0>        -0.0330
     30 C25        -1.0664   -8.9503    8.9362 C.ar      1 <0>        -0.0894
     31 Cl1        -2.8393  -10.6508    7.8059 Cl        1 <0>        -0.0601
     32 H1          1.0042    1.8801    0.0026 H         1 <0>         0.0761
     33 H2         -0.5455    1.8639   -0.8728 H         1 <0>         0.0710
     34 H3         -0.5286    1.8543    0.9071 H         1 <0>         0.0749
     35 H4         -0.0060   -0.1427   -2.1244 H         1 <0>         0.1389
     36 H5          0.0260   -2.6016   -2.1506 H         1 <0>         0.1428
     37 H6          0.0530   -3.8678   -0.0453 H         1 <0>         0.1363
     38 H7          0.1057   -3.5696    4.8823 H         1 <0>         0.1440
     39 H8          0.1029   -1.4230    8.5967 H         1 <0>         0.1372
     40 H9          0.0531    0.7052    7.3753 H         1 <0>         0.1459
     41 H10        -0.8542    1.2934    4.5876 H         1 <0>         0.3968
     42 H11         1.5992   -3.1591    8.8118 H         1 <0>         0.1418
     43 H12         2.4979   -4.8268   10.7754 H         1 <0>         0.1650
     44 H13         1.9288   -7.3458   11.5082 H         1 <0>         0.1607
     45 H14         1.0551   -9.2596   11.5693 H         1 <0>         0.1381
     46 H15         0.0310  -11.4945   11.6178 H         1 <0>         0.1421
     47 H16        -1.6821  -12.1048    9.9612 H         1 <0>         0.1391
     48 H17        -1.3774   -8.2386    8.1858 H         1 <0>         0.1413
@<TRIPOS>BOND
     1    1    2 1
     2    1   32 1
     3    1   33 1
     4    1   34 1
     5    2    7 ar
     6    2    3 ar
     7    3    4 ar
     8    3   35 1
     9    4    5 ar
    10    4   36 1
    11    5    6 ar
    12    5   37 1
    13    6   10 1
    14    6    7 ar
    15    7    8 1
    16    8    9 2
    17    9   10 1
    18    9   11 1
    19   11   16 ar
    20   11   12 ar
    21   12   13 ar
    22   12   38 1
    23   13   14 ar
    24   13   18 1
    25   14   15 ar
    26   14   39 1
    27   15   16 ar
    28   15   40 1
    29   16   17 1
    30   17   41 1
    31   18   19 2
    32   19   20 1
    33   19   42 1
    34   20   24 1
    35   20   21 2
    36   21   22 1
    37   21   43 1
    38   22   23 2
    39   22   44 1
    40   23   24 1
    41   23   25 1
    42   25   30 ar
    43   25   26 ar
    44   26   27 ar
    45   26   45 1
    46   27   28 ar
    47   27   46 1
    48   28   29 ar
    49   28   47 1
    50   29   30 ar
    51   29   31 1
    52   30   48 1
@<TRIPOS>MOLECULE
ZINC39887517
   50    53     0     0     0
SMALL
USER_CHARGES

@<TRIPOS>ATOM
      1 C1         -0.0184    1.5028    0.0103 C.3       1 <0>        -0.1143
      2 C2          0.0021   -0.0041    0.0020 C.ar      1 <0>        -0.0854
      3 C3          0.0057   -0.6862   -1.2018 C.ar      1 <0>        -0.1166
      4 C4          0.0239   -2.0655   -1.2165 C.ar      1 <0>        -0.0914
      5 C5          0.0392   -2.7730   -0.0132 C.ar      1 <0>        -0.0152
      6 C6          0.0359   -2.0786    1.1977 C.ar      1 <0>        -0.0953
      7 C7          0.0229   -0.6991    1.1982 C.ar      1 <0>        -0.1198
      8 C8          0.0582   -4.2508   -0.0214 C.2       1 <0>         0.0299
      9 C9          0.0688   -5.0545    1.0751 C.2       1 <0>        -0.1921
     10 C10         0.0859   -6.3828    0.6045 C.2       1 <0>        -0.1827
     11 C11         0.0849   -6.3247   -0.7416 C.2       1 <0>        -0.0330
     12 O1          0.0623   -5.0352   -1.1163 O.3       1 <0>        -0.1442
     13 C12         0.1000   -7.5099   -1.6723 C.3       1 <0>         0.4696
     14 H1         -0.9242   -7.8082   -1.8960 H         1 <0>         0.1225
     15 N1          0.8025   -8.6232   -1.0315 N.am      1 <0>        -0.7343
     16 C13         2.1346   -8.7687   -1.1770 C.2       1 <0>         0.6010
     17 O2          2.7178   -9.6726   -0.6062 O.2       1 <0>        -0.5606
     18 C14         2.8767   -7.8337   -2.0259 C.2       1 <0>        -0.3250
     19 C15         2.1505   -7.0186   -2.9101 C.2       1 <0>         0.4537
     20 N2          0.7844   -7.1441   -2.9169 N.pl3     1 <0>        -0.5696
     21 C16         0.0573   -6.9263   -4.0912 C.ar      1 <0>         0.1525
     22 C17        -0.4077   -5.6532   -4.3960 C.ar      1 <0>        -0.0674
     23 C18        -1.1251   -5.4414   -5.5567 C.ar      1 <0>        -0.1262
     24 C19        -1.3808   -6.4950   -6.4154 C.ar      1 <0>        -0.0812
     25 C20        -0.9195   -7.7634   -6.1150 C.ar      1 <0>        -0.1226
     26 C21        -0.1968   -7.9810   -4.9582 C.ar      1 <0>        -0.0702
     27 C22         0.3110   -9.3625   -4.6346 C.3       1 <0>        -0.1132
     28 C23        -2.1645   -6.2603   -7.6810 C.3       1 <0>        -0.1107
     29 S1          2.9663   -5.8741   -3.9727 S.3       1 <0>        -0.7764
     30 C24         4.3046   -7.7523   -1.9560 C.1       1 <0>         0.3374
     31 N3          5.4374   -7.6877   -1.9006 N.1       1 <0>        -0.4969
     32 H2          1.0042    1.8801    0.0026 H         1 <0>         0.0708
     33 H3         -0.5455    1.8639   -0.8728 H         1 <0>         0.0662
     34 H4         -0.5286    1.8543    0.9071 H         1 <0>         0.0654
     35 H5         -0.0062   -0.1375   -2.1320 H         1 <0>         0.1256
     36 H6          0.0259   -2.5968   -2.1568 H         1 <0>         0.1301
     37 H7          0.0473   -2.6201    2.1321 H         1 <0>         0.1270
     38 H8          0.0248   -0.1606    2.1343 H         1 <0>         0.1256
     39 H9          0.0648   -4.7366    2.1072 H         1 <0>         0.1484
     40 H10         0.0975   -7.2780    1.2086 H         1 <0>         0.1501
     41 H11         0.3048   -9.2617   -0.4972 H         1 <0>         0.4057
     42 H12        -0.2087   -4.8301   -3.7257 H         1 <0>         0.1259
     43 H13        -1.4872   -4.4520   -5.7941 H         1 <0>         0.1196
     44 H14        -1.1209   -8.5840   -6.7876 H         1 <0>         0.1204
     45 H15        -0.4395   -9.8987   -4.0538 H         1 <0>         0.0665
     46 H16         0.5085   -9.9031   -5.5603 H         1 <0>         0.0643
     47 H17         1.2313   -9.2850   -4.0557 H         1 <0>         0.0719
     48 H18        -1.4801   -6.0050   -8.4901 H         1 <0>         0.0683
     49 H19        -2.7136   -7.1651   -7.9415 H         1 <0>         0.0626
     50 H20        -2.8666   -5.4409   -7.5269 H         1 <0>         0.0632
@<TRIPOS>BOND
     1    1    2 1
     2    1   32 1
     3    1   33 1
     4    1   34 1
     5    2    7 ar
     6    2    3 ar
     7    3    4 ar
     8    3   35 1
     9    4    5 ar
    10    4   36 1
    11    5    6 ar
    12    5    8 1
    13    6    7 ar
    14    6   37 1
    15    7   38 1
    16    8   12 1
    17    8    9 2
    18    9   10 1
    19    9   39 1
    20   10   11 2
    21   10   40 1
    22   11   12 1
    23   11   13 1
    24   13   14 1
    25   13   20 1
    26   13   15 1
    27   15   16 am
    28   15   41 1
    29   16   17 2
    30   16   18 1
    31   18   19 2
    32   18   30 1
    33   19   20 1
    34   19   29 1
    35   20   21 1
    36   21   26 ar
    37   21   22 ar
    38   22   23 ar
    39   22   42 1
    40   23   24 ar
    41   23   43 1
    42   24   25 ar
    43   24   28 1
    44   25   26 ar
    45   25   44 1
    46   26   27 1
    47   27   45 1
    48   27   46 1
    49   27   47 1
    50   28   48 1
    51   28   49 1
    52   28   50 1
    53   30   31 3
@<TRIPOS>MOLECULE
ZINC44602993
   44    47     0     0     0
SMALL
USER_CHARGES

@<TRIPOS>ATOM
      1 C1         -0.0163    1.3803    0.0111 C.ar      1 <0>        -0.1331
      2 C2          0.2368    0.3963    0.9507 C.ar      1 <0>        -0.1314
      3 C3          1.4398   -0.2780    0.9409 C.ar      1 <0>        -0.0572
      4 C4          2.4042    0.0344   -0.0208 C.ar      1 <0>         0.0337
      5 C5          2.1415    1.0291   -0.9663 C.ar      1 <0>        -0.1140
      6 C6          0.9340    1.6950   -0.9443 C.ar      1 <0>        -0.1320
      7 C7          3.6936   -0.6821   -0.0374 C.2       1 <0>        -0.0215
      8 C8          3.6918   -2.0533    0.0545 C.2       1 <0>         0.1263
      9 C9          4.9283   -2.7522    0.0388 C.2       1 <0>         0.3730
     10 O1          4.9700   -3.9690    0.1177 O.2       1 <0>        -0.4589
     11 C10         6.1598   -1.9491   -0.0773 C.ar      1 <0>        -0.2314
     12 C11         7.4171   -2.5532   -0.1009 C.ar      1 <0>        -0.0240
     13 C12         8.5454   -1.7712   -0.2107 C.ar      1 <0>        -0.1784
     14 C13         8.4344   -0.3907   -0.2970 C.ar      1 <0>        -0.0594
     15 C14         7.1983    0.2185   -0.2748 C.ar      1 <0>        -0.1631
     16 C15         6.0463   -0.5522   -0.1650 C.ar      1 <0>         0.1715
     17 O2          4.8290    0.0282   -0.1475 O.3       1 <0>        -0.2106
     18 N1          2.4837   -2.7542    0.1629 N.2       1 <0>        -1.0602
     19 S1          2.4921   -4.4065    0.2731 S.o2      1 <0>         2.6268
     20 O3          2.9810   -4.8939   -0.9689 O.2       1 <0>        -1.0139
     21 O4          3.1074   -4.7277    1.5130 O.2       1 <0>        -1.0137
     22 C16         0.8136   -4.9290    0.3936 C.ar      1 <0>        -0.6281
     23 C17         0.2142   -5.0487    1.6337 C.ar      1 <0>         0.0068
     24 C18        -1.1024   -5.4586    1.7282 C.ar      1 <0>        -0.1456
     25 C19        -1.8200   -5.7485    0.5826 C.ar      1 <0>        -0.0391
     26 C20        -1.2211   -5.6280   -0.6572 C.ar      1 <0>        -0.2119
     27 C21         0.0946   -5.2138   -0.7519 C.ar      1 <0>         0.0274
     28 C22        -2.0032   -5.9444   -1.9059 C.3       1 <0>         0.5118
     29 F1         -3.3005   -6.3350   -1.5571 F         1 <0>        -0.1801
     30 F2         -2.0613   -4.8083   -2.7202 F         1 <0>        -0.1739
     31 F3         -1.3739   -6.9836   -2.5995 F         1 <0>        -0.1759
     32 H1         -0.9619    1.9020    0.0208 H         1 <0>         0.1102
     33 H2         -0.5093    0.1561    1.6936 H         1 <0>         0.1141
     34 H3          1.6362   -1.0455    1.6750 H         1 <0>         0.1311
     35 H4          2.8824    1.2760   -1.7123 H         1 <0>         0.1164
     36 H5          0.7294    2.4638   -1.6748 H         1 <0>         0.1127
     37 H6          7.5050   -3.6275   -0.0331 H         1 <0>         0.1345
     38 H7          9.5209   -2.2343   -0.2294 H         1 <0>         0.1261
     39 H8          9.3260    0.2128   -0.3821 H         1 <0>         0.1302
     40 H9          7.1246    1.2938   -0.3423 H         1 <0>         0.1359
     41 H10         0.7748   -4.8223    2.5286 H         1 <0>         0.1455
     42 H11        -1.5704   -5.5528    2.6969 H         1 <0>         0.1390
     43 H12        -2.8486   -6.0695    0.6564 H         1 <0>         0.1394
     44 H13         0.5615   -5.1160   -1.7209 H         1 <0>         0.1452
@<TRIPOS>BOND
     1    1    6 ar
     2    1    2 ar
     3    1   32 1
     4    2    3 ar
     5    2   33 1
     6    3    4 ar
     7    3   34 1
     8    4    5 ar
     9    4    7 1
    10    5    6 ar
    11    5   35 1
    12    6   36 1
    13    7   17 1
    14    7    8 2
    15    8    9 1
    16    8   18 1
    17    9   10 2
    18    9   11 1
    19   11   16 ar
    20   11   12 ar
    21   12   13 ar
    22   12   37 1
    23   13   14 ar
    24   13   38 1
    25   14   15 ar
    26   14   39 1
    27   15   16 ar
    28   15   40 1
    29   16   17 1
    30   18   19 1
    31   19   20 2
    32   19   21 2
    33   19   22 1
    34   22   27 ar
    35   22   23 ar
    36   23   24 ar
    37   23   41 1
    38   24   25 ar
    39   24   42 1
    40   25   26 ar
    41   25   43 1
    42   26   27 ar
    43   26   28 1
    44   27   44 1
    45   28   29 1
    46   28   30 1
    47   28   31 1
@<TRIPOS>MOLECULE
ZINC15015709
   46    50     0     0     0
SMALL
USER_CHARGES

@<TRIPOS>ATOM
      1 C1         -1.3544    1.1200    0.6362 C.ar      1 <0>        -0.1145
      2 C2         -0.3048    2.0190    0.6667 C.ar      1 <0>        -0.1246
      3 C3          0.9977    1.5640    0.5812 C.ar      1 <0>        -0.0996
      4 C4          1.2506    0.2099    0.4657 C.ar      1 <0>        -0.1132
      5 C5          0.2010   -0.6892    0.4361 C.ar      1 <0>        -0.0942
      6 C6         -1.1015   -0.2341    0.5202 C.ar      1 <0>        -0.1223
      7 C7          2.6706   -0.2861    0.3715 C.3       1 <0>         0.1561
      8 N1          3.1845   -0.5542    1.7169 N.am      1 <0>        -0.5420
      9 C8          3.8368    0.3851    2.5082 C.ar      1 <0>         0.1490
     10 C9          4.1614    1.7175    2.2815 C.ar      1 <0>        -0.1494
     11 C10         4.8249    2.4442    3.2502 C.ar      1 <0>        -0.0847
     12 C11         5.1749    1.8594    4.4560 C.ar      1 <0>        -0.1512
     13 C12         4.8617    0.5378    4.7007 C.ar      1 <0>        -0.0567
     14 C13         4.1927   -0.2040    3.7303 C.ar      1 <0>        -0.0911
     15 C14         3.7206   -1.6030    3.6738 C.2       1 <0>        -0.0856
     16 C15         3.8450   -2.5706    4.6472 C.2       1 <0>        -0.0806
     17 C16         4.5943   -2.5383    5.9380 C.2       1 <0>         0.5315
     18 O1          5.2300   -1.5605    6.2909 O.2       1 <0>        -0.5142
     19 N2          4.5273   -3.6265    6.6710 N.2       1 <0>        -0.7059
     20 C17         3.8396   -4.6952    6.2987 C.2       1 <0>         0.4289
     21 S1          3.1477   -4.2158    4.7236 S.3       1 <0>        -0.0504
     22 N3          3.6908   -5.8794    6.9631 N.2       1 <0>        -0.5522
     23 C18         4.1363   -6.0014    8.2824 C.ar      1 <0>         0.1598
     24 C19         4.4618   -7.2512    8.7943 C.ar      1 <0>        -0.1261
     25 C20         4.9021   -7.3687   10.0978 C.ar      1 <0>        -0.0992
     26 C21         5.0191   -6.2429   10.8942 C.ar      1 <0>        -0.0757
     27 C22         4.6951   -4.9966   10.3871 C.ar      1 <0>        -0.0951
     28 C23         4.2597   -4.8725    9.0825 C.ar      1 <0>        -0.1398
     29 Cl1         5.5730   -6.3944   12.5325 Cl        1 <0>        -0.0998
     30 C24         3.0803   -1.7374    2.3457 C.2       1 <0>         0.5590
     31 O2          2.5554   -2.7406    1.9018 O.2       1 <0>        -0.4867
     32 H1         -2.3718    1.4751    0.7076 H         1 <0>         0.1210
     33 H2         -0.5024    3.0769    0.7570 H         1 <0>         0.1220
     34 H3          1.8177    2.2664    0.6043 H         1 <0>         0.1215
     35 H4          0.3986   -1.7471    0.3455 H         1 <0>         0.1274
     36 H5         -1.9215   -0.9365    0.4967 H         1 <0>         0.1229
     37 H6          2.6968   -1.2033   -0.2169 H         1 <0>         0.0990
     38 H7          3.2890    0.4718   -0.1094 H         1 <0>         0.0942
     39 H8          3.8945    2.1853    1.3454 H         1 <0>         0.1199
     40 H9          5.0736    3.4789    3.0657 H         1 <0>         0.1249
     41 H10         5.6939    2.4383    5.2056 H         1 <0>         0.1259
     42 H11         5.1341    0.0809    5.6405 H         1 <0>         0.1734
     43 H12         4.3703   -8.1301    8.1733 H         1 <0>         0.1265
     44 H13         5.1550   -8.3401   10.4963 H         1 <0>         0.1240
     45 H14         4.7867   -4.1198   11.0110 H         1 <0>         0.1210
     46 H15         4.0113   -3.8991    8.6859 H         1 <0>         0.1471
@<TRIPOS>BOND
     1    1    6 ar
     2    1    2 ar
     3    1   32 1
     4    2    3 ar
     5    2   33 1
     6    3    4 ar
     7    3   34 1
     8    4    5 ar
     9    4    7 1
    10    5    6 ar
    11    5   35 1
    12    6   36 1
    13    7    8 1
    14    7   37 1
    15    7   38 1
    16    8   30 am
    17    8    9 1
    18    9   14 ar
    19    9   10 ar
    20   10   11 ar
    21   10   39 1
    22   11   12 ar
    23   11   40 1
    24   12   13 ar
    25   12   41 1
    26   13   14 ar
    27   13   42 1
    28   14   15 1
    29   15   16 2
    30   15   30 1
    31   16   21 1
    32   16   17 1
    33   17   18 2
    34   17   19 1
    35   19   20 2
    36   20   21 1
    37   20   22 1
    38   22   23 1
    39   23   28 ar
    40   23   24 ar
    41   24   25 ar
    42   24   43 1
    43   25   26 ar
    44   25   44 1
    45   26   27 ar
    46   26   29 1
    47   27   28 ar
    48   27   45 1
    49   28   46 1
    50   30   31 2
@<TRIPOS>MOLECULE
ZINC03050602
   38    41     0     0     0
SMALL
USER_CHARGES
2-[(E)-[4-(1,3-benzothiazol-2-yl)-3-hydroxy-phenyl]iminomethyl]-6-bromo-4-chloro-phenol
@<TRIPOS>ATOM
      1 C1          5.4336    7.6047   -0.0056 C.ar      1 <0>        -0.1124
      2 C2          6.4833    6.6967   -0.0195 C.ar      1 <0>        -0.1112
      3 C3          6.2073    5.3420   -0.0243 C.ar      1 <0>        -0.0627
      4 C4          4.9008    4.9192   -0.0154 C.ar      1 <0>        -0.1729
      5 C5          3.8092    5.8196   -0.0012 C.ar      1 <0>         0.0930
      6 C6          4.1366    7.1967    0.0038 C.ar      1 <0>        -0.0720
      7 N1          2.5861    5.2549    0.0062 N.2       1 <0>        -0.5304
      8 C7          2.4093    3.9505    0.0008 C.2       1 <0>         0.2446
      9 S1          4.0888    3.3391   -0.0100 S.3       1 <0>         0.0274
     10 C8          1.1465    3.1874    0.0083 C.ar      1 <0>        -0.1203
     11 C9         -0.0777    3.8613    0.0236 C.ar      1 <0>        -0.0022
     12 C10        -1.2481    3.1589    0.0310 C.ar      1 <0>        -0.2192
     13 C11        -1.2305    1.7598    0.0174 C.ar      1 <0>         0.1945
     14 C12        -0.0126    1.0758    0.0080 C.ar      1 <0>        -0.2239
     15 C13         1.1738    1.7852    0.0004 C.ar      1 <0>         0.2144
     16 O1          2.3613    1.1269   -0.0140 O.3       1 <0>        -0.5024
     17 N2         -2.4054    1.0621    0.0187 N.2       1 <0>        -0.4739
     18 C14        -3.3706    1.4114    0.8241 C.2       1 <0>         0.2504
     19 C15        -4.6344    0.6610    0.8255 C.ar      1 <0>        -0.2367
     20 C16        -5.6722    1.0319    1.6874 C.ar      1 <0>        -0.0028
     21 C17        -6.8551    0.3237    1.6830 C.ar      1 <0>        -0.1695
     22 C18        -7.0212   -0.7553    0.8282 C.ar      1 <0>        -0.0118
     23 C19        -6.0043   -1.1319   -0.0285 C.ar      1 <0>        -0.2102
     24 C20        -4.8094   -0.4281   -0.0418 C.ar      1 <0>         0.3202
     25 O2         -3.8119   -0.7944   -0.8863 O.3       1 <0>        -0.6125
     26 Br1        -6.2450   -2.6052   -1.1892 Br        1 <0>        -0.0793
     27 Cl1        -8.1422    0.7847    2.7528 Cl        1 <0>        -0.1104
     28 H1          5.6526    8.6622   -0.0019 H         1 <0>         0.1294
     29 H2          7.5056    7.0451   -0.0267 H         1 <0>         0.1338
     30 H3          7.0125    4.6222   -0.0347 H         1 <0>         0.1294
     31 H4          3.3462    7.9327    0.0141 H         1 <0>         0.1290
     32 H5         -0.0978    4.9411    0.0300 H         1 <0>         0.1366
     33 H6         -2.1912    3.6850    0.0433 H         1 <0>         0.1284
     34 H7          0.0021   -0.0041    0.0020 H         1 <0>         0.1401
     35 H8          2.3804    0.0271   -0.0202 H         1 <0>         0.4408
     36 H9         -3.2385    2.2675    1.5021 H         1 <0>         0.0925
     37 H10        -5.5468    1.8713    2.3554 H         1 <0>         0.1162
     38 H11        -7.9510   -1.3046    0.8317 H         1 <0>         0.1160
@<TRIPOS>BOND
     1    1    6 ar
     2    1    2 ar
     3    1   28 1
     4    2    3 ar
     5    2   29 1
     6    3    4 ar
     7    3   30 1
     8    4    9 1
     9    4    5 ar
    10    5    6 ar
    11    5    7 1
    12    6   31 1
    13    7    8 2
    14    8    9 1
    15    8   10 1
    16   10   15 ar
    17   10   11 ar
    18   11   12 ar
    19   11   32 1
    20   12   13 ar
    21   12   33 1
    22   13   14 ar
    23   13   17 1
    24   14   15 ar
    25   14   34 1
    26   15   16 1
    27   16   35 1
    28   17   18 2
    29   18   19 1
    30   18   36 1
    31   19   24 ar
    32   19   20 ar
    33   20   21 ar
    34   20   37 1
    35   21   22 ar
    36   21   27 1
    37   22   23 ar
    38   22   38 1
    39   23   24 ar
    40   23   26 1
    41   24   25 1
@<TRIPOS>MOLECULE
ZINC04964009
   26    28     0     0     0
SMALL
USER_CHARGES

@<TRIPOS>ATOM
      1 C1         -0.0167    1.3788    0.0096 C.ar      1 <0>        -0.0500
      2 C2          1.1654    2.0901    0.0022 C.ar      1 <0>        -0.0924
      3 C3          2.3862    1.4132   -0.0131 C.ar      1 <0>        -0.0002
      4 C4          2.3947    0.0207   -0.0206 C.ar      1 <0>        -0.0889
      5 C5          1.2087   -0.6818   -0.0133 C.ar      1 <0>        -0.0314
      6 C6          0.0021   -0.0041    0.0020 C.ar      1 <0>        -0.0428
      7 N1         -1.2703   -0.7604    0.0101 N.pl3     1 <0>         0.0331
      8 O1         -2.3248   -0.1693    0.0233 O.2       1 <0>        -0.1522
      9 O2         -1.2550   -1.9693    0.0034 O.3       1 <0>        -0.1533
     10 C7          3.8363   -0.4251   -0.0372 C.3       1 <0>        -0.0481
     11 C8          4.6632    0.8374   -0.0386 C.ar      1 <0>        -0.0154
     12 C9          3.7821    1.9161   -0.0242 C.ar      1 <0>        -0.0764
     13 C10         4.2894    3.2171   -0.0222 C.ar      1 <0>        -0.0163
     14 C11         5.6524    3.4266   -0.0346 C.ar      1 <0>        -0.1352
     15 C12         6.5249    2.3467   -0.0490 C.ar      1 <0>         0.1945
     16 C13         6.0247    1.0506   -0.0513 C.ar      1 <0>        -0.1183
     17 I1          7.3401   -0.5799   -0.0727 I         1 <0>         0.0001
     18 O3          7.8673    2.5573   -0.0612 O.3       1 <0>        -0.4707
     19 I2          6.4088    5.3803   -0.0323 I         1 <0>         0.0020
     20 H1         -0.9603    1.9038    0.0260 H         1 <0>         0.1609
     21 H2          1.1463    3.1699    0.0077 H         1 <0>         0.1510
     22 H3          1.2210   -1.7617   -0.0192 H         1 <0>         0.1597
     23 H4          4.0564   -1.0168    0.8513 H         1 <0>         0.1214
     24 H5          4.0387   -1.0073   -0.9362 H         1 <0>         0.1214
     25 H6          3.6140    4.0597   -0.0114 H         1 <0>         0.1452
     26 H7          8.2646    2.6136    0.8186 H         1 <0>         0.4026
@<TRIPOS>BOND
     1    1    6 ar
     2    1    2 ar
     3    1   20 1
     4    2    3 ar
     5    2   21 1
     6    3   12 1
     7    3    4 ar
     8    4    5 ar
     9    4   10 1
    10    5    6 ar
    11    5   22 1
    12    6    7 1
    13    7    8 2
    14    7    9 1
    15   10   11 1
    16   10   23 1
    17   10   24 1
    18   11   16 ar
    19   11   12 ar
    20   12   13 ar
    21   13   14 ar
    22   13   25 1
    23   14   15 ar
    24   14   19 1
    25   15   16 ar
    26   15   18 1
    27   16   17 1
    28   18   26 1
@<TRIPOS>MOLECULE
ZINC37384290
   26    27     0     0     0
SMALL
USER_CHARGES

@<TRIPOS>ATOM
      1 C1          0.0003    1.3217    0.0058 C.ar      1 <0>        -0.1412
      2 C2          1.1802    2.0424   -0.0028 C.ar      1 <0>        -0.0072
      3 C3          2.3941    1.3815   -0.0119 C.ar      1 <0>        -0.6100
      4 C4          2.4290   -0.0004   -0.0123 C.ar      1 <0>         0.0067
      5 C5          1.2490   -0.7218   -0.0033 C.ar      1 <0>        -0.1159
      6 C6          0.0342   -0.0599    0.0058 C.ar      1 <0>        -0.0562
      7 Br1         1.2961   -2.6122   -0.0046 Br        1 <0>        -0.0560
      8 S1          3.8974    2.3006   -0.0234 S.o2      1 <0>         2.6137
      9 O1          4.8893    1.4499   -0.5816 O.2       1 <0>        -1.0230
     10 O2          3.5901    3.5749   -0.5722 O.2       1 <0>        -1.0035
     11 N1          4.3271    2.5563    1.5553 N.2       1 <0>        -1.1109
     12 C7          5.5519    3.1605    1.8577 C.ar      1 <0>         0.2927
     13 C8          5.7833    4.4828    1.4991 C.ar      1 <0>        -0.1221
     14 C9          6.9947    5.0768    1.7994 C.ar      1 <0>        -0.0552
     15 C10         7.9763    4.3563    2.4562 C.ar      1 <0>        -0.1426
     16 C11         7.7492    3.0393    2.8142 C.ar      1 <0>        -0.0595
     17 C12         6.5376    2.4413    2.5224 C.ar      1 <0>        -0.0650
     18 Cl1         6.2505    0.7913    2.9794 Cl        1 <0>        -0.0640
     19 Br2         9.6321    5.1730    2.8650 Br        1 <0>        -0.0694
     20 Cl2         4.5525    5.3876    0.6744 Cl        1 <0>        -0.0290
     21 H1         -0.9480    1.8385    0.0170 H         1 <0>         0.1353
     22 H2          1.1533    3.1221   -0.0028 H         1 <0>         0.1439
     23 H3          3.3776   -0.5167   -0.0202 H         1 <0>         0.1450
     24 H4         -0.8875   -0.6227    0.0129 H         1 <0>         0.1332
     25 H5          7.1754    6.1045    1.5206 H         1 <0>         0.1294
     26 H6          8.5175    2.4794    3.3266 H         1 <0>         0.1309
@<TRIPOS>BOND
     1    1    6 ar
     2    1    2 ar
     3    1   21 1
     4    2    3 ar
     5    2   22 1
     6    3    4 ar
     7    3    8 1
     8    4    5 ar
     9    4   23 1
    10    5    6 ar
    11    5    7 1
    12    6   24 1
    13    8    9 2
    14    8   10 2
    15    8   11 1
    16   11   12 1
    17   12   17 ar
    18   12   13 ar
    19   13   14 ar
    20   13   20 1
    21   14   15 ar
    22   14   25 1
    23   15   16 ar
    24   15   19 1
    25   16   17 ar
    26   16   26 1
    27   17   18 1
@<TRIPOS>MOLECULE
ZINC39557084
   54    58     0     0     0
SMALL
USER_CHARGES

@<TRIPOS>ATOM
      1 C1         -0.0187    1.3683    0.0075 C.ar      1 <0>        -0.1479
      2 C2          1.1691    2.0849    0.0222 C.ar      1 <0>        -0.1120
      3 C3          2.3826    1.4329    0.0043 C.ar      1 <0>        -0.1250
      4 C4          2.4237    0.0423   -0.0290 C.ar      1 <0>         0.0883
      5 C5          1.2208   -0.6807   -0.0439 C.ar      1 <0>        -0.0788
      6 C6          0.0014   -0.0091   -0.0255 C.ar      1 <0>        -0.0754
      7 C7          1.6031   -2.1060   -0.0792 C.2       1 <0>        -0.1623
      8 C8          2.9816   -2.1359   -0.0829 C.2       1 <0>         0.1263
      9 N1          3.4613   -0.8674   -0.0533 N.pl3     1 <0>        -0.4674
     10 C9          4.8826   -0.5126   -0.0473 C.3       1 <0>         0.1495
     11 C10         5.7127   -1.7656    0.0619 C.ar      1 <0>        -0.1077
     12 C11         5.9880   -2.3071    1.3047 C.ar      1 <0>        -0.0016
     13 C12         6.7503   -3.4575    1.4043 C.ar      1 <0>        -0.0975
     14 C13         7.2370   -4.0654    0.2624 C.ar      1 <0>        -0.0582
     15 C14         6.9622   -3.5248   -0.9797 C.ar      1 <0>        -0.0934
     16 C15         6.1950   -2.3779   -1.0809 C.ar      1 <0>        -0.0008
     17 Cl1         5.8435   -1.7034   -2.6415 Cl        1 <0>        -0.0563
     18 Cl2         5.3778   -1.5431    2.7391 Cl        1 <0>        -0.0562
     19 C16         0.7283   -3.2205   -0.1043 C.2       1 <0>         0.0096
     20 C17         1.2428   -4.5011   -0.1363 C.2       1 <0>        -0.0367
     21 C18         0.4841   -5.7589   -0.1711 C.2       1 <0>         0.5103
     22 O1         -0.7274   -5.8892   -0.1772 O.2       1 <0>        -0.5263
     23 N2          1.4119   -6.7405   -0.1948 N.am      1 <0>        -0.5684
     24 C19         2.6551   -6.1615   -0.1768 C.2       1 <0>         0.4964
     25 S1          4.1732   -7.0556   -0.1968 S.3       1 <0>        -0.7690
     26 N3          2.5638   -4.8586   -0.1483 N.2       1 <0>        -0.5527
     27 C20         1.1370   -8.1790   -0.2327 C.3       1 <0>         0.1688
     28 C21         1.7472   -8.8476    1.0007 C.3       1 <0>        -0.1433
     29 C22         1.4601  -10.3499    0.9611 C.3       1 <0>        -0.1083
     30 C23         2.0753  -10.9535   -0.3031 C.3       1 <0>        -0.1167
     31 C24         1.4650  -10.2849   -1.5365 C.3       1 <0>        -0.1083
     32 C25         1.7522   -8.7826   -1.4969 C.3       1 <0>        -0.1433
     33 H1         -0.9630    1.8920    0.0264 H         1 <0>         0.1179
     34 H2          1.1422    3.1643    0.0477 H         1 <0>         0.1190
     35 H3          3.3013    2.0006    0.0156 H         1 <0>         0.1138
     36 H4         -0.9245   -0.5650   -0.0370 H         1 <0>         0.1204
     37 H5          3.5858   -3.0308   -0.1058 H         1 <0>         0.2061
     38 H6          5.1309    0.0083   -0.9720 H         1 <0>         0.0928
     39 H7          5.0914    0.1368    0.8029 H         1 <0>         0.0937
     40 H8          6.9653   -3.8803    2.3746 H         1 <0>         0.1400
     41 H9          7.8325   -4.9630    0.3407 H         1 <0>         0.1441
     42 H10         7.3431   -4.0000   -1.8716 H         1 <0>         0.1409
     43 H11        -0.3408   -3.0680   -0.0983 H         1 <0>         0.1271
     44 H12         0.0594   -8.3429   -0.2391 H         1 <0>         0.0765
     45 H13         2.8248   -8.6837    1.0071 H         1 <0>         0.1142
     46 H14         1.3089   -8.4176    1.9013 H         1 <0>         0.0488
     47 H15         1.8948  -10.8262    1.8398 H         1 <0>         0.0598
     48 H16         0.3825  -10.5138    0.9547 H         1 <0>         0.0519
     49 H17         3.1528  -10.7896   -0.2967 H         1 <0>         0.0693
     50 H18         1.8707  -12.0238   -0.3313 H         1 <0>         0.0534
     51 H19         1.9033  -10.7149   -2.4371 H         1 <0>         0.0598
     52 H20         0.3874  -10.4488   -1.5429 H         1 <0>         0.0519
     53 H21         1.3174   -8.3063   -2.3756 H         1 <0>         0.0488
     54 H22         2.8297   -8.6187   -1.4905 H         1 <0>         0.1141
@<TRIPOS>BOND
     1    1    6 ar
     2    1    2 ar
     3    1   33 1
     4    2    3 ar
     5    2   34 1
     6    3    4 ar
     7    3   35 1
     8    4    9 1
     9    4    5 ar
    10    5    6 ar
    11    5    7 1
    12    6   36 1
    13    7    8 2
    14    7   19 1
    15    8    9 1
    16    8   37 1
    17    9   10 1
    18   10   11 1
    19   10   38 1
    20   10   39 1
    21   11   16 ar
    22   11   12 ar
    23   12   13 ar
    24   12   18 1
    25   13   14 ar
    26   13   40 1
    27   14   15 ar
    28   14   41 1
    29   15   16 ar
    30   15   42 1
    31   16   17 1
    32   19   20 2
    33   19   43 1
    34   20   26 1
    35   20   21 1
    36   21   22 2
    37   21   23 am
    38   23   24 1
    39   23   27 1
    40   24   25 1
    41   24   26 2
    42   27   32 1
    43   27   28 1
    44   27   44 1
    45   28   29 1
    46   28   45 1
    47   28   46 1
    48   29   30 1
    49   29   47 1
    50   29   48 1
    51   30   31 1
    52   30   49 1
    53   30   50 1
    54   31   32 1
    55   31   51 1
    56   31   52 1
    57   32   53 1
    58   32   54 1
@<TRIPOS>MOLECULE
ZINC40475375
   52    56     0     0     0
SMALL
USER_CHARGES

@<TRIPOS>ATOM
      1 C1         -0.0187    1.5258    0.0104 C.3       1 <0>        -0.1394
      2 C2          0.0021   -0.0041    0.0020 C.3       1 <0>        -0.0290
      3 C3          0.7421   -0.5109    1.2415 C.3       1 <0>        -0.1372
      4 C4         -1.4333   -0.5336    0.0129 C.3       1 <0>        -0.1438
      5 C5          0.7074   -0.4901   -1.2379 C.ar      1 <0>        -0.0686
      6 C6          0.0361   -1.2843   -2.1485 C.ar      1 <0>        -0.1174
      7 C7          0.6831   -1.7301   -3.2859 C.ar      1 <0>        -0.1018
      8 C8          2.0014   -1.3813   -3.5127 C.ar      1 <0>        -0.0794
      9 C9          2.6724   -0.5863   -2.6025 C.ar      1 <0>        -0.0923
     10 C10         2.0241   -0.1370   -1.4673 C.ar      1 <0>        -0.1111
     11 C11         2.7070   -1.8681   -4.7521 C.3       1 <0>         0.0618
     12 H1          2.0039   -2.4724   -5.3253 H         1 <0>         0.0774
     13 C12         3.0721   -0.6919   -5.5654 C.2       1 <0>        -0.2886
     14 C13         4.2029   -0.4505   -6.2846 C.2       1 <0>         0.1065
     15 N1          4.2068    0.6905   -6.9729 N.2       1 <0>        -0.5548
     16 C14         3.2023    1.5375   -6.9136 C.2       1 <0>         0.2809
     17 S1          3.0270    3.0864   -7.7350 S.3       1 <0>        -0.7215
     18 S2          2.1244    0.7830   -5.8632 S.3       1 <0>         0.0662
     19 S3          5.5505   -1.6045   -6.2326 S.3       1 <0>         0.0357
     20 C15         4.8587   -3.0543   -5.4501 C.3       1 <0>        -0.1514
     21 H2          5.6834   -3.6223   -5.0195 H         1 <0>         0.1615
     22 C16         3.8640   -2.7665   -4.3192 C.3       1 <0>        -0.0799
     23 H3          4.3392   -2.4401   -3.3941 H         1 <0>         0.1531
     24 C17         3.2194   -4.1702   -4.2606 C.2       1 <0>         0.5328
     25 O1          2.7508   -4.7112   -3.2822 O.2       1 <0>        -0.4440
     26 N2          3.2789   -4.6762   -5.5099 N.am      1 <0>        -0.5269
     27 C18         4.0899   -3.9858   -6.3370 C.2       1 <0>         0.5449
     28 O2          4.1854   -4.1031   -7.5398 O.2       1 <0>        -0.4268
     29 C19         2.5528   -5.8051   -5.9144 C.ar      1 <0>         0.1202
     30 C20         1.7190   -6.4550   -5.0145 C.ar      1 <0>        -0.1412
     31 C21         1.0049   -7.5670   -5.4159 C.ar      1 <0>        -0.1007
     32 C22         1.1198   -8.0332   -6.7126 C.ar      1 <0>        -0.1303
     33 C23         1.9494   -7.3880   -7.6112 C.ar      1 <0>        -0.0992
     34 C24         2.6617   -6.2721   -7.2172 C.ar      1 <0>        -0.1404
     35 H4          1.0039    1.9031    0.0027 H         1 <0>         0.0579
     36 H5         -0.5459    1.8868   -0.8726 H         1 <0>         0.0582
     37 H6         -0.5289    1.8773    0.9072 H         1 <0>         0.0558
     38 H7          0.2319   -0.1594    2.1383 H         1 <0>         0.0557
     39 H8          0.7568   -1.6008    1.2356 H         1 <0>         0.0557
     40 H9          1.7647   -0.1336    1.2338 H         1 <0>         0.0571
     41 H10        -1.9605   -0.1726   -0.8702 H         1 <0>         0.0591
     42 H11        -1.4185   -1.6235    0.0069 H         1 <0>         0.0577
     43 H12        -1.9435   -0.1821    0.9097 H         1 <0>         0.0558
     44 H13        -0.9938   -1.5568   -1.9713 H         1 <0>         0.1244
     45 H14         0.1588   -2.3512   -3.9970 H         1 <0>         0.1149
     46 H15         3.7024   -0.3141   -2.7796 H         1 <0>         0.1223
     47 H16         2.5473    0.4872   -0.7580 H         1 <0>         0.1204
     48 H17         1.6291   -6.0915   -4.0014 H         1 <0>         0.1526
     49 H18         0.3564   -8.0732   -4.7161 H         1 <0>         0.1288
     50 H19         0.5607   -8.9031   -7.0241 H         1 <0>         0.1249
     51 H20         2.0372   -7.7544   -8.6234 H         1 <0>         0.1297
     52 H21         3.3061   -5.7660   -7.9208 H         1 <0>         0.1534
@<TRIPOS>BOND
     1    1    2 1
     2    1   35 1
     3    1   36 1
     4    1   37 1
     5    2    3 1
     6    2    4 1
     7    2    5 1
     8    3   38 1
     9    3   39 1
    10    3   40 1
    11    4   41 1
    12    4   42 1
    13    4   43 1
    14    5   10 ar
    15    5    6 ar
    16    6    7 ar
    17    6   44 1
    18    7    8 ar
    19    7   45 1
    20    8    9 ar
    21    8   11 1
    22    9   10 ar
    23    9   46 1
    24   10   47 1
    25   11   12 1
    26   11   22 1
    27   11   13 1
    28   13   18 1
    29   13   14 2
    30   14   15 1
    31   14   19 1
    32   15   16 2
    33   16   17 1
    34   16   18 1
    35   19   20 1
    36   20   21 1
    37   20   27 1
    38   20   22 1
    39   22   23 1
    40   22   24 1
    41   24   25 2
    42   24   26 am
    43   26   27 am
    44   26   29 1
    45   27   28 2
    46   29   34 ar
    47   29   30 ar
    48   30   31 ar
    49   30   48 1
    50   31   32 ar
    51   31   49 1
    52   32   33 ar
    53   32   50 1
    54   33   34 ar
    55   33   51 1
    56   34   52 1
@<TRIPOS>MOLECULE
ZINC40475340
   55    59     0     0     0
SMALL
USER_CHARGES

@<TRIPOS>ATOM
      1 C1         -0.0184    1.5028    0.0103 C.3       1 <0>        -0.1127
      2 C2          0.0021   -0.0041    0.0020 C.ar      1 <0>        -0.0979
      3 C3          0.0058   -0.6875   -1.2001 C.ar      1 <0>        -0.0996
      4 C4          0.0245   -2.0685   -1.2108 C.ar      1 <0>        -0.1362
      5 C5          0.0401   -2.7705   -0.0132 C.ar      1 <0>         0.1154
      6 C6          0.0368   -2.0816    1.1921 C.ar      1 <0>        -0.1365
      7 C7          0.0229   -0.7004    1.1965 C.ar      1 <0>        -0.1010
      8 N1          0.0586   -4.1723   -0.0209 N.am      1 <0>        -0.5284
      9 C8          0.0690   -4.9155    1.1050 C.2       1 <0>         0.5321
     10 O1         -0.1661   -4.5288    2.2296 O.2       1 <0>        -0.4451
     11 C9          0.4384   -6.3559    0.6827 C.3       1 <0>        -0.0805
     12 H1          0.0123   -7.1287    1.3224 H         1 <0>         0.1517
     13 C10         1.9656   -6.3418    0.6908 C.3       1 <0>         0.0628
     14 H2          2.2965   -5.3191    0.5103 H         1 <0>         0.0780
     15 C11         2.6297   -7.2200   -0.2918 C.2       1 <0>        -0.2883
     16 C12         2.1331   -7.7857   -1.4265 C.2       1 <0>         0.1071
     17 N2          3.0110   -8.4839   -2.1458 N.2       1 <0>        -0.5545
     18 C13         4.2545   -8.6479   -1.7499 C.2       1 <0>         0.2809
     19 S1          5.5493   -9.5361   -2.5494 S.3       1 <0>        -0.7215
     20 S2          4.3093   -7.8042   -0.2941 S.3       1 <0>         0.0662
     21 S3          0.4170   -7.5916   -1.8364 S.3       1 <0>         0.0328
     22 C14        -0.1780   -6.3186   -0.7218 C.3       1 <0>        -0.1468
     23 H3         -1.2559   -6.4316   -0.6061 H         1 <0>         0.1617
     24 C15         0.0619   -4.9068   -1.1605 C.2       1 <0>         0.5445
     25 O2          0.2257   -4.5068   -2.2931 O.2       1 <0>        -0.4256
     26 C16         2.4312   -6.7464    2.0658 C.ar      1 <0>        -0.0785
     27 C17         2.0910   -7.9862    2.5737 C.ar      1 <0>        -0.0938
     28 C18         2.5182   -8.3574    3.8349 C.ar      1 <0>        -0.1110
     29 C19         3.2859   -7.4889    4.5881 C.ar      1 <0>        -0.0689
     30 C20         3.6269   -6.2494    4.0798 C.ar      1 <0>        -0.1170
     31 C21         3.2033   -5.8800    2.8168 C.ar      1 <0>        -0.1017
     32 C22         3.7507   -7.8931    5.9634 C.3       1 <0>        -0.0289
     33 C23         4.6118   -9.1536    5.8607 C.3       1 <0>        -0.1393
     34 C24         4.5762   -6.7601    6.5763 C.3       1 <0>        -0.1438
     35 C25         2.5360   -8.1761    6.8496 C.3       1 <0>        -0.1372
     36 H4          1.0042    1.8801    0.0026 H         1 <0>         0.0704
     37 H5         -0.5455    1.8639   -0.8728 H         1 <0>         0.0662
     38 H6         -0.5286    1.8543    0.9071 H         1 <0>         0.0659
     39 H7         -0.0064   -0.1408   -2.1314 H         1 <0>         0.1291
     40 H8          0.0266   -2.6018   -2.1500 H         1 <0>         0.1535
     41 H9          0.0485   -2.6250    2.1253 H         1 <0>         0.1528
     42 H10         0.0241   -0.1639    2.1338 H         1 <0>         0.1283
     43 H11         1.4912   -8.6648    1.9853 H         1 <0>         0.1221
     44 H12         2.2518   -9.3258    4.2320 H         1 <0>         0.1203
     45 H13         4.2264   -5.5708    4.6683 H         1 <0>         0.1245
     46 H14         3.4728   -4.9131    2.4183 H         1 <0>         0.1154
     47 H15         5.4772   -8.9520    5.2294 H         1 <0>         0.0583
     48 H16         4.9480   -9.4460    6.8555 H         1 <0>         0.0557
     49 H17         4.0237   -9.9609    5.4241 H         1 <0>         0.0577
     50 H18         3.9627   -5.8621    6.6494 H         1 <0>         0.0577
     51 H19         4.9124   -7.0525    7.5710 H         1 <0>         0.0557
     52 H20         5.4416   -6.5585    5.9449 H         1 <0>         0.0592
     53 H21         1.9479   -8.9834    6.4130 H         1 <0>         0.0570
     54 H22         2.8722   -8.4685    7.8444 H         1 <0>         0.0557
     55 H23         1.9225   -7.2782    6.9227 H         1 <0>         0.0557
@<TRIPOS>BOND
     1    1    2 1
     2    1   36 1
     3    1   37 1
     4    1   38 1
     5    2    7 ar
     6    2    3 ar
     7    3    4 ar
     8    3   39 1
     9    4    5 ar
    10    4   40 1
    11    5    6 ar
    12    5    8 1
    13    6    7 ar
    14    6   41 1
    15    7   42 1
    16    8   24 am
    17    8    9 am
    18    9   10 2
    19    9   11 1
    20   11   12 1
    21   11   22 1
    22   11   13 1
    23   13   14 1
    24   13   15 1
    25   13   26 1
    26   15   20 1
    27   15   16 2
    28   16   17 1
    29   16   21 1
    30   17   18 2
    31   18   19 1
    32   18   20 1
    33   21   22 1
    34   22   23 1
    35   22   24 1
    36   24   25 2
    37   26   31 ar
    38   26   27 ar
    39   27   28 ar
    40   27   43 1
    41   28   29 ar
    42   28   44 1
    43   29   30 ar
    44   29   32 1
    45   30   31 ar
    46   30   45 1
    47   31   46 1
    48   32   33 1
    49   32   34 1
    50   32   35 1
    51   33   47 1
    52   33   48 1
    53   33   49 1
    54   34   50 1
    55   34   51 1
    56   34   52 1
    57   35   53 1
    58   35   54 1
    59   35   55 1
@<TRIPOS>MOLECULE
ZINC04273370
   80    84     0     0     0
SMALL
USER_CHARGES
10-hydroxy-1,2,6a,6b,9,9,12a-heptamethyl-2,3,4,5,6,6a,7,8,8a,10,11,12,13,14b-tetradecahydro-1H-picene-4a-carboxylic acid
@<TRIPOS>ATOM
      1 C1         -0.9702   12.4102    2.7478 C.3       1 <0>        -0.1462
      2 C2         -1.9973   11.3226    3.0677 C.3       1 <0>        -0.0877
      3 H1         -2.9871   11.6539    2.7549 H         1 <0>         0.0649
      4 C3         -1.9973   11.0472    4.5721 C.3       1 <0>        -0.1094
      5 C4         -3.0999   10.0435    4.8866 C.3       1 <0>        -0.0897
      6 C5         -2.8940    8.7262    4.1446 C.3       1 <0>        -0.0838
      7 C6         -1.8427    7.8831    4.8597 C.3       1 <0>        -0.0858
      8 C7         -1.8096    6.4681    4.2885 C.3       1 <0>        -0.1004
      9 C8         -1.4848    6.4742    2.8030 C.3       1 <0>         0.0049
     10 C9         -2.1276    7.5919    2.0471 C.2       1 <0>        -0.0352
     11 C10        -2.4128    7.4802    0.7702 C.2       1 <0>        -0.1937
     12 C11        -2.3217    6.2168   -0.0299 C.3       1 <0>        -0.0688
     13 C12        -1.4843    5.1657    0.6933 C.3       1 <0>        -0.0576
     14 H2         -0.4235    5.4814    0.5939 H         1 <0>         0.0609
     15 C13        -1.8587    5.1208    2.1646 C.3       1 <0>        -0.0262
     16 C14        -1.1552    3.9928    2.9106 C.3       1 <0>        -0.1110
     17 C15        -1.2918    2.6585    2.1625 C.3       1 <0>        -0.1111
     18 C16        -0.6912    2.8335    0.7674 C.3       1 <0>        -0.0570
     19 H3          0.2902    3.3491    0.9260 H         1 <0>         0.0571
     20 C17        -1.5475    3.8131   -0.0247 C.3       1 <0>        -0.0357
     21 C18        -0.9398    4.0049   -1.4252 C.3       1 <0>        -0.1099
     22 C19        -0.8408    2.6553   -2.1311 C.3       1 <0>        -0.1489
     23 C20         0.0947    1.7347   -1.3573 C.3       1 <0>         0.1192
     24 H4          1.0974    2.1762   -1.3413 H         1 <0>         0.0464
     25 C21        -0.3766    1.5244    0.0829 C.3       1 <0>        -0.0367
     26 C22         0.7992    0.8514    0.8323 C.3       1 <0>        -0.1454
     27 C23        -1.5457    0.5407    0.1110 C.3       1 <0>        -0.1335
     28 O1          0.1668    0.4677   -2.0187 O.3       1 <0>        -0.5658
     29 C24        -2.9808    3.3288   -0.1996 C.3       1 <0>        -0.1533
     30 C25        -3.3743    4.9597    2.3425 C.3       1 <0>        -0.1480
     31 C26        -2.5560    8.8986    2.6806 C.3       1 <0>        -0.0234
     32 H5         -3.5380    9.1515    2.1764 H         1 <0>         0.0709
     33 C27        -1.6300   10.0380    2.3227 C.3       1 <0>        -0.0642
     34 H6         -1.7548   10.2540    1.2405 H         1 <0>         0.0496
     35 C28        -0.1538    9.7359    2.5451 C.3       1 <0>        -0.1531
     36 C29         0.0395    6.6229    2.6851 C.3       1 <0>        -0.1556
     37 C30        -4.2273    7.9922    4.2280 C.2       1 <0>         0.4736
     38 O2         -4.7989    7.6610    3.2164 O.co2     1 <0>        -0.6275
     39 H7         -0.9659   12.6015    1.6747 H         1 <0>         0.0482
     40 H8         -1.2325   13.3252    3.2789 H         1 <0>         0.0477
     41 H9          0.0196   12.0789    3.0618 H         1 <0>         0.0579
     42 H10        -1.0348   10.6573    4.8925 H         1 <0>         0.0599
     43 H11        -2.1911   11.9813    5.1077 H         1 <0>         0.0489
     44 H12        -4.0684   10.4672    4.6102 H         1 <0>         0.0499
     45 H13        -3.1068    9.8450    5.9638 H         1 <0>         0.0613
     46 H14        -2.0972    7.8297    5.9248 H         1 <0>         0.0564
     47 H15        -0.8647    8.3507    4.7682 H         1 <0>         0.0472
     48 H16        -2.7254    5.9421    4.5232 H         1 <0>         0.0753
     49 H17        -0.9975    5.9232    4.8098 H         1 <0>         0.0398
     50 H18        -2.8088    8.3617    0.2806 H         1 <0>         0.0892
     51 H19        -1.8491    6.4487   -0.9939 H         1 <0>         0.0510
     52 H20        -3.3293    5.8604   -0.2367 H         1 <0>         0.0712
     53 H21        -0.0948    4.1893    3.0428 H         1 <0>         0.0599
     54 H22        -1.6088    3.8766    3.9015 H         1 <0>         0.0604
     55 H23        -0.7317    1.9044    2.7219 H         1 <0>         0.0559
     56 H24        -2.3319    2.3636    2.1238 H         1 <0>         0.0684
     57 H25         0.0513    4.4455   -1.3275 H         1 <0>         0.0593
     58 H26        -1.5818    4.6718   -2.0001 H         1 <0>         0.0672
     59 H27        -0.4281    2.8177   -3.1370 H         1 <0>         0.0535
     60 H28        -1.8195    2.2008   -2.2485 H         1 <0>         0.0753
     61 H29         1.6724    1.5030    0.7981 H         1 <0>         0.0475
     62 H30         0.5163    0.6773    1.8705 H         1 <0>         0.0556
     63 H31         1.0368   -0.0998    0.3560 H         1 <0>         0.0581
     64 H32        -1.1985   -0.4453   -0.1978 H         1 <0>         0.0565
     65 H33        -1.9486    0.4838    1.1222 H         1 <0>         0.0531
     66 H34        -2.3241    0.8819   -0.5716 H         1 <0>         0.0563
     67 H35         0.4805    0.5180   -2.9320 H         1 <0>         0.3715
     68 H36        -2.9985    2.4900   -0.8955 H         1 <0>         0.0543
     69 H37        -3.3767    3.0095    0.7644 H         1 <0>         0.0674
     70 H38        -3.5931    4.1403   -0.5931 H         1 <0>         0.0579
     71 H39        -3.6788    3.9743    1.9898 H         1 <0>         0.0443
     72 H40        -3.6293    5.0629    3.3972 H         1 <0>         0.0579
     73 H41        -3.8913    5.7274    1.7669 H         1 <0>         0.0745
     74 H42         0.1385    8.8822    1.9337 H         1 <0>         0.0596
     75 H43         0.4412   10.6048    2.2640 H         1 <0>         0.0498
     76 H44         0.0153    9.5045    3.5968 H         1 <0>         0.0566
     77 H45         0.3264    6.6014    1.6337 H         1 <0>         0.0518
     78 H46         0.3473    7.5708    3.1264 H         1 <0>         0.0632
     79 H47         0.5264    5.8019    3.2114 H         1 <0>         0.0520
     80 O3         -4.7663    7.7138    5.4253 O.co2     1 <0>        -0.7744
@<TRIPOS>BOND
     1    1    2 1
     2    1   39 1
     3    1   40 1
     4    1   41 1
     5    2    3 1
     6    2   33 1
     7    2    4 1
     8    4    5 1
     9    4   42 1
    10    4   43 1
    11    5    6 1
    12    5   44 1
    13    5   45 1
    14    6   31 1
    15    6    7 1
    16    6   37 1
    17    7    8 1
    18    7   46 1
    19    7   47 1
    20    8    9 1
    21    8   48 1
    22    8   49 1
    23    9   15 1
    24    9   10 1
    25    9   36 1
    26   10   11 2
    27   10   31 1
    28   11   12 1
    29   11   50 1
    30   12   13 1
    31   12   51 1
    32   12   52 1
    33   13   14 1
    34   13   20 1
    35   13   15 1
    36   15   16 1
    37   15   30 1
    38   16   17 1
    39   16   53 1
    40   16   54 1
    41   17   18 1
    42   17   55 1
    43   17   56 1
    44   18   19 1
    45   18   25 1
    46   18   20 1
    47   20   21 1
    48   20   29 1
    49   21   22 1
    50   21   57 1
    51   21   58 1
    52   22   23 1
    53   22   59 1
    54   22   60 1
    55   23   24 1
    56   23   25 1
    57   23   28 1
    58   25   26 1
    59   25   27 1
    60   26   61 1
    61   26   62 1
    62   26   63 1
    63   27   64 1
    64   27   65 1
    65   27   66 1
    66   28   67 1
    67   29   68 1
    68   29   69 1
    69   29   70 1
    70   30   71 1
    71   30   72 1
    72   30   73 1
    73   31   32 1
    74   31   33 1
    75   33   34 1
    76   33   35 1
    77   35   74 1
    78   35   75 1
    79   35   76 1
    80   36   77 1
    81   36   78 1
    82   36   79 1
    83   37   38 2
    84   37   80 1
@<TRIPOS>MOLECULE
ZINC33169090
   38    41     0     0     0
SMALL
USER_CHARGES
4-chloro-N-[3-chloro-4-(6-chloro-1,3-benzothiazol-2-yl)phenyl]benzenesulfonamide
@<TRIPOS>ATOM
      1 C1          4.6620   10.3609   -3.2686 C.ar      1 <0>        -0.0113
      2 C2          4.9966    9.9083   -4.5310 C.ar      1 <0>        -0.1372
      3 C3          4.1386    9.0638   -5.2127 C.ar      1 <0>         0.0007
      4 C4          2.9487    8.6684   -4.6280 C.ar      1 <0>        -0.1356
      5 C5          2.6178    9.1171   -3.3633 C.ar      1 <0>        -0.0157
      6 C6          3.4756    9.9609   -2.6826 C.ar      1 <0>        -0.6561
      7 S1          3.0531   10.5325   -1.0703 S.o2      1 <0>         2.6022
      8 O1          1.6522   10.3427   -0.9263 O.2       1 <0>        -1.0280
      9 O2          3.6696   11.8034   -0.9155 O.2       1 <0>        -0.9860
     10 N1          3.7824    9.5173    0.0158 N.2       1 <0>        -1.0619
     11 C7          3.4510    8.1637    0.0356 C.ar      1 <0>         0.2814
     12 C8          2.1154    7.7753   -0.0035 C.ar      1 <0>        -0.2242
     13 C9          1.7842    6.4387    0.0110 C.ar      1 <0>        -0.0130
     14 C10         2.7901    5.4718    0.0747 C.ar      1 <0>        -0.1160
     15 C11         4.1310    5.8643    0.1134 C.ar      1 <0>         0.0231
     16 C12         4.4558    7.2044    0.0937 C.ar      1 <0>        -0.1532
     17 Cl1         5.3856    4.6667    0.1855 Cl        1 <0>        -0.0574
     18 C13         2.4379    4.0375    0.0951 C.2       1 <0>         0.2514
     19 N2          1.2468    3.4796    0.0655 N.2       1 <0>        -0.5279
     20 C14         1.0720    2.1434    0.0906 C.ar      1 <0>         0.1042
     21 C15        -0.1444    1.4204    0.0636 C.ar      1 <0>        -0.0616
     22 C16        -0.1484    0.0611    0.0950 C.ar      1 <0>        -0.1031
     23 C17         1.0309   -0.6703    0.1549 C.ar      1 <0>        -0.0345
     24 C18         2.2420   -0.0018    0.1829 C.ar      1 <0>        -0.0472
     25 C19         2.2559    1.3710    0.1511 C.ar      1 <0>        -0.1812
     26 S2          3.5213    2.6177    0.1669 S.3       1 <0>         0.0292
     27 Cl2         0.9858   -2.4053    0.1935 Cl        1 <0>        -0.0648
     28 Cl3         4.5551    8.5002   -6.8010 Cl        1 <0>        -0.0761
     29 H1          5.3297   11.0236   -2.7381 H         1 <0>         0.1440
     30 H2          5.9256   10.2174   -4.9869 H         1 <0>         0.1352
     31 H3          2.2787    8.0089   -5.1596 H         1 <0>         0.1349
     32 H4          1.6892    8.8082   -2.9066 H         1 <0>         0.1449
     33 H5          1.3375    8.5231   -0.0486 H         1 <0>         0.1569
     34 H6          0.7473    6.1385   -0.0235 H         1 <0>         0.1332
     35 H7          5.4916    7.5090    0.1232 H         1 <0>         0.1364
     36 H8         -1.0814    1.9551    0.0130 H         1 <0>         0.1385
     37 H9         -1.0923   -0.4631    0.0732 H         1 <0>         0.1381
     38 H10         3.1685   -0.5550    0.2290 H         1 <0>         0.1376
@<TRIPOS>BOND
     1    1    6 ar
     2    1    2 ar
     3    1   29 1
     4    2    3 ar
     5    2   30 1
     6    3    4 ar
     7    3   28 1
     8    4    5 ar
     9    4   31 1
    10    5    6 ar
    11    5   32 1
    12    6    7 1
    13    7    8 2
    14    7    9 2
    15    7   10 1
    16   10   11 1
    17   11   16 ar
    18   11   12 ar
    19   12   13 ar
    20   12   33 1
    21   13   14 ar
    22   13   34 1
    23   14   15 ar
    24   14   18 1
    25   15   16 ar
    26   15   17 1
    27   16   35 1
    28   18   26 1
    29   18   19 2
    30   19   20 1
    31   20   25 ar
    32   20   21 ar
    33   21   22 ar
    34   21   36 1
    35   22   23 ar
    36   22   37 1
    37   23   24 ar
    38   23   27 1
    39   24   25 ar
    40   24   38 1
    41   25   26 1
@<TRIPOS>MOLECULE
ZINC33891268
   37    41     0     0     0
SMALL
USER_CHARGES

@<TRIPOS>ATOM
      1 C1          1.1238   -0.5449   -0.5983 C.ar      1 <0>        -0.0723
      2 C2          2.3119    0.1609   -0.6065 C.ar      1 <0>        -0.1541
      3 C3          2.3786    1.4101   -0.0131 C.ar      1 <0>         0.1010
      4 C4          1.2545    1.9507    0.5878 C.ar      1 <0>        -0.1619
      5 C5          0.0675    1.2431    0.5948 C.ar      1 <0>        -0.0639
      6 C6          0.0021   -0.0041    0.0020 C.ar      1 <0>        -0.1027
      7 C7         -1.2930   -0.7747    0.0103 C.3       1 <0>        -0.0125
      8 H1         -2.1314   -0.0856    0.1114 H         1 <0>         0.1382
      9 C8         -1.2966   -1.7668    1.1713 C.3       1 <0>        -0.1292
     10 H2         -2.1180   -2.4716    1.0428 H         1 <0>         0.1348
     11 C9          0.0283   -2.5295    1.1933 C.3       1 <0>         0.0686
     12 H3          0.8236   -1.7845    1.2176 H         1 <0>         0.0916
     13 C10         0.1338   -3.3266    2.4574 C.ar      1 <0>        -0.1238
     14 C11         0.9423   -4.4489    2.4941 C.ar      1 <0>        -0.0431
     15 C12         1.0591   -5.1884    3.6557 C.ar      1 <0>        -0.1054
     16 C13         0.3660   -4.8059    4.7906 C.ar      1 <0>        -0.0625
     17 C14        -0.4456   -3.6909    4.7589 C.ar      1 <0>        -0.1270
     18 C15        -0.5719   -2.9466    3.5908 C.ar      1 <0>         0.1320
     19 O1         -1.4063   -1.8713    3.5959 O.3       1 <0>        -0.2925
     20 C16        -1.4345   -1.0740    2.5050 C.2       1 <0>         0.5069
     21 O2         -1.5682    0.1237    2.5923 O.2       1 <0>        -0.4221
     22 Br1         2.1648   -6.7220    3.6940 Br        1 <0>        -0.0421
     23 C17         0.2111   -3.3205   -0.0415 C.2       1 <0>        -0.3390
     24 C18        -0.3397   -3.0949   -1.2737 C.2       1 <0>         0.1734
     25 N1          0.0312   -3.9617   -2.2156 N.2       1 <0>        -0.6350
     26 C19         0.8430   -4.9617   -1.9620 C.2       1 <0>         0.4250
     27 O3          1.2984   -5.9127   -2.8137 O.3       1 <0>        -0.6152
     28 S1          1.1820   -4.7774   -0.3225 S.3       1 <0>        -0.0761
     29 S2         -1.4566   -1.7218   -1.5376 S.3       1 <0>        -0.0620
     30 F1          3.5397    2.1007   -0.0202 F         1 <0>        -0.1425
     31 H4          1.0704   -1.5174   -1.0650 H         1 <0>         0.1514
     32 H5          3.1882   -0.2620   -1.0753 H         1 <0>         0.1359
     33 H6          1.3054    2.9249    1.0513 H         1 <0>         0.1341
     34 H7         -0.8094    1.6645    1.0638 H         1 <0>         0.1410
     35 H8          1.4849   -4.7489    1.6097 H         1 <0>         0.1619
     36 H9          0.4606   -5.3797    5.7006 H         1 <0>         0.1438
     37 H10        -0.9857   -3.3943    5.6459 H         1 <0>         0.1452
@<TRIPOS>BOND
     1    1    6 ar
     2    1    2 ar
     3    1   31 1
     4    2    3 ar
     5    2   32 1
     6    3    4 ar
     7    3   30 1
     8    4    5 ar
     9    4   33 1
    10    5    6 ar
    11    5   34 1
    12    6    7 1
    13    7    8 1
    14    7   29 1
    15    7    9 1
    16    9   10 1
    17    9   20 1
    18    9   11 1
    19   11   12 1
    20   11   13 1
    21   11   23 1
    22   13   18 ar
    23   13   14 ar
    24   14   15 ar
    25   14   35 1
    26   15   16 ar
    27   15   22 1
    28   16   17 ar
    29   16   36 1
    30   17   18 ar
    31   17   37 1
    32   18   19 1
    33   19   20 1
    34   20   21 2
    35   23   28 1
    36   23   24 2
    37   24   25 1
    38   24   29 1
    39   25   26 2
    40   26   27 1
    41   26   28 1
@<TRIPOS>MOLECULE
ZINC40942149
   34    36     0     0     0
SMALL
USER_CHARGES

@<TRIPOS>ATOM
      1 C1          0.2423    1.6000   -1.8901 C.ar      1 <0>        -0.1010
      2 C2          1.3841    2.2767   -1.5036 C.ar      1 <0>        -0.0700
      3 C3          2.6074    1.6337   -1.5182 C.ar      1 <0>        -0.0754
      4 C4          2.6898    0.3119   -1.9194 C.ar      1 <0>        -0.0201
      5 C5          1.5477   -0.3658   -2.3058 C.ar      1 <0>        -0.1010
      6 C6          0.3235    0.2785   -2.2913 C.ar      1 <0>        -0.0242
      7 Cl1        -1.1106   -0.5712   -2.7761 Cl        1 <0>        -0.0568
      8 Cl2         4.2266   -0.4954   -1.9383 Cl        1 <0>        -0.0536
      9 C7          3.8518    2.3724   -1.0977 C.3       1 <0>         0.0986
     10 O1          3.5104    3.7107   -0.7313 O.3       1 <0>        -0.3031
     11 C8          4.5243    4.5160   -0.3250 C.ar      1 <0>         0.1666
     12 C9          5.8226    4.0337   -0.2841 C.ar      1 <0>        -0.2189
     13 C10         6.8545    4.8539    0.1295 C.ar      1 <0>        -0.0371
     14 C11         6.6028    6.1645    0.5065 C.ar      1 <0>        -0.1319
     15 C12         5.3190    6.6636    0.4731 C.ar      1 <0>         0.0433
     16 C13         4.2633    5.8450    0.0507 C.ar      1 <0>        -0.0906
     17 C14         2.8952    6.3694    0.0063 C.2       1 <0>         0.0373
     18 C15         2.6607    7.6207   -0.4790 C.2       1 <0>        -0.1751
     19 C16         3.5491    8.5262   -1.1356 C.2       1 <0>         0.4788
     20 O2          4.8395    8.1903   -1.3602 O.3       1 <0>        -0.5643
     21 N1          3.0878    9.6766   -1.5108 N.2       1 <0>        -0.6200
     22 C17         1.8088   10.0296   -1.2975 C.2       1 <0>         0.3898
     23 S1          1.0109   11.4866   -1.7115 S.2       1 <0>        -0.5235
     24 S2          1.1529    8.5828   -0.4778 S.3       1 <0>        -0.1673
     25 Br1         8.0285    7.2719    1.0698 Br        1 <0>        -0.0543
     26 H1         -0.7140    2.1017   -1.8745 H         1 <0>         0.1450
     27 H2          1.3203    3.3083   -1.1904 H         1 <0>         0.1550
     28 H3          1.6116   -1.3974   -2.6189 H         1 <0>         0.1468
     29 H4          4.3040    1.8663   -0.2447 H         1 <0>         0.0872
     30 H5          4.5601    2.3919   -1.9259 H         1 <0>         0.0871
     31 H6          6.0282    3.0144   -0.5759 H         1 <0>         0.1357
     32 H7          7.8641    4.4716    0.1598 H         1 <0>         0.1331
     33 H8          5.1275    7.6848    0.7680 H         1 <0>         0.1416
     34 H9          2.0731    5.7638    0.3582 H         1 <0>         0.1422
@<TRIPOS>BOND
     1    1    6 ar
     2    1    2 ar
     3    1   26 1
     4    2    3 ar
     5    2   27 1
     6    3    4 ar
     7    3    9 1
     8    4    5 ar
     9    4    8 1
    10    5    6 ar
    11    5   28 1
    12    6    7 1
    13    9   10 1
    14    9   29 1
    15    9   30 1
    16   10   11 1
    17   11   16 ar
    18   11   12 ar
    19   12   13 ar
    20   12   31 1
    21   13   14 ar
    22   13   32 1
    23   14   15 ar
    24   14   25 1
    25   15   16 ar
    26   15   33 1
    27   16   17 1
    28   17   18 2
    29   17   34 1
    30   18   24 1
    31   18   19 1
    32   19   20 1
    33   19   21 2
    34   21   22 1
    35   22   23 2
    36   22   24 1
@<TRIPOS>MOLECULE
ZINC16440181
   41    44     0     0     0
SMALL
USER_CHARGES

@<TRIPOS>ATOM
      1 C1         -1.3737   -0.6060   -0.3374 C.3       1 <0>         0.0249
      2 O1         -0.1626    0.0055    0.1111 O.3       1 <0>        -0.3043
      3 C2          0.5012   -0.6106    1.1237 C.ar      1 <0>         0.1563
      4 C3         -0.0032   -1.7843    1.6690 C.ar      1 <0>        -0.2057
      5 C4          0.6661   -2.4130    2.6960 C.ar      1 <0>        -0.0450
      6 C5          1.8555   -1.8679    3.1898 C.ar      1 <0>        -0.0889
      7 C6          2.3598   -0.6863    2.6381 C.ar      1 <0>        -0.0310
      8 C7          1.6859   -0.0675    1.6068 C.ar      1 <0>        -0.1288
      9 Br1         2.3704    1.5261    0.8534 Br        1 <0>        -0.0420
     10 C8          2.5743   -2.5359    4.2877 C.2       1 <0>        -0.0557
     11 C9          2.5468   -3.8771    4.3919 C.2       1 <0>         0.0067
     12 C10         3.1269   -4.5355    5.5736 C.ar      1 <0>         0.3913
     13 N1          3.6718   -3.7918    6.5361 N.ar      1 <0>        -0.6019
     14 C11         4.2073   -4.3262    7.6160 C.ar      1 <0>         0.4808
     15 O2          4.7509   -3.5362    8.5726 O.3       1 <0>        -0.6655
     16 C12         4.2081   -5.7408    7.7664 C.ar      1 <0>        -0.2916
     17 C13         4.7434   -6.5423    8.8674 C.2       1 <0>        -0.0205
     18 C14         4.6157   -7.8817    8.7685 C.2       1 <0>        -0.2138
     19 S1          3.7864   -8.1557    7.2258 S.3       1 <0>         0.0317
     20 C15         3.6137   -6.4668    6.7116 C.ar      1 <0>         0.1572
     21 N2          3.0936   -5.8622    5.6649 N.ar      1 <0>        -0.5499
     22 C16         5.0779   -8.9124    9.7533 C.3       1 <0>        -0.0225
     23 C17         6.0573   -8.2451   10.7294 C.3       1 <0>        -0.1125
     24 C18         5.4419   -6.9314   11.2203 C.3       1 <0>        -0.1201
     25 C19         5.4198   -5.9111   10.0814 C.3       1 <0>        -0.0558
     26 Cl1         1.8270   -4.8310    3.1326 Cl        1 <0>        -0.0551
     27 H1         -2.0826   -0.6573    0.4890 H         1 <0>         0.0579
     28 H2         -1.8014   -0.0143   -1.1468 H         1 <0>         0.1014
     29 H3         -1.1610   -1.6129   -0.6966 H         1 <0>         0.0578
     30 H4         -0.9220   -2.2047    1.2875 H         1 <0>         0.1370
     31 H5          0.2727   -3.3253    3.1194 H         1 <0>         0.1447
     32 H6          3.2778   -0.2613    3.0163 H         1 <0>         0.1447
     33 H7          3.1235   -1.9493    5.0093 H         1 <0>         0.1649
     34 H8          4.2222   -9.3049   10.3027 H         1 <0>         0.0712
     35 H9          5.5802   -9.7239    9.2268 H         1 <0>         0.0707
     36 H10         6.2345   -8.9055   11.5782 H         1 <0>         0.0650
     37 H11         6.9987   -8.0400   10.2198 H         1 <0>         0.0647
     38 H12         4.4235   -7.1143   11.5631 H         1 <0>         0.0605
     39 H13         6.0358   -6.5395   12.0460 H         1 <0>         0.0617
     40 H14         6.4403   -5.6273    9.8244 H         1 <0>         0.0706
     41 H15         4.8609   -5.0288   10.3932 H         1 <0>         0.0887
@<TRIPOS>BOND
     1    1    2 1
     2    1   27 1
     3    1   28 1
     4    1   29 1
     5    2    3 1
     6    3    8 ar
     7    3    4 ar
     8    4    5 ar
     9    4   30 1
    10    5    6 ar
    11    5   31 1
    12    6    7 ar
    13    6   10 1
    14    7    8 ar
    15    7   32 1
    16    8    9 1
    17   10   11 2
    18   10   33 1
    19   11   12 1
    20   11   26 1
    21   12   21 ar
    22   12   13 ar
    23   13   14 ar
    24   14   15 1
    25   14   16 ar
    26   16   20 ar
    27   16   17 1
    28   17   25 1
    29   17   18 2
    30   18   19 1
    31   18   22 1
    32   19   20 1
    33   20   21 ar
    34   22   23 1
    35   22   34 1
    36   22   35 1
    37   23   24 1
    38   23   36 1
    39   23   37 1
    40   24   25 1
    41   24   38 1
    42   24   39 1
    43   25   40 1
    44   25   41 1
@<TRIPOS>MOLECULE
ZINC10013776
   55    59     0     0     0
SMALL
USER_CHARGES

@<TRIPOS>ATOM
      1 C1         -0.0193    1.5041   -0.0063 C.3       1 <0>        -0.0926
      2 C2          0.0016   -0.0026   -0.0241 C.2       1 <0>         0.2628
      3 C3         -1.1844   -0.6708   -0.0160 C.2       1 <0>        -0.3703
      4 C4         -1.1326   -2.1882   -0.0352 C.3       1 <0>         0.1239
      5 H1         -1.6508   -2.5583    0.8494 H         1 <0>         0.0347
      6 C5          0.2556   -2.7990   -0.0625 C.2       1 <0>        -0.3975
      7 C6          0.4063   -4.1346   -0.0838 C.2       1 <0>         0.3294
      8 C7          1.7730   -4.7662   -0.1091 C.3       1 <0>        -0.1176
      9 C8          2.7519   -3.8249   -0.8169 C.3       1 <0>        -0.0406
     10 H2          2.4375   -3.6814   -1.8507 H         1 <0>         0.0820
     11 C9          2.7565   -2.4770   -0.0905 C.3       1 <0>        -0.0671
     12 C10         1.3526   -1.9215   -0.0656 C.2       1 <0>         0.2907
     13 N1          1.1744   -0.6209   -0.0523 N.2       1 <0>        -0.6386
     14 C11         4.1356   -4.4211   -0.7883 C.ar      1 <0>        -0.0642
     15 C12         4.7457   -4.6942    0.4217 C.ar      1 <0>        -0.1132
     16 C13         6.0150   -5.2411    0.4479 C.ar      1 <0>        -0.1197
     17 C14         6.6740   -5.5154   -0.7359 C.ar      1 <0>        -0.1302
     18 C15         6.0635   -5.2432   -1.9459 C.ar      1 <0>        -0.1204
     19 C16         4.7925   -4.7003   -1.9722 C.ar      1 <0>        -0.1155
     20 O1         -0.6861   -4.9229   -0.0822 O.3       1 <0>        -0.6257
     21 C17        -1.8796   -2.6701   -1.2521 C.2       1 <0>        -0.0780
     22 C18        -2.9838   -3.4908   -1.1180 C.2       1 <0>        -0.1206
     23 C19        -3.6331   -3.9066   -2.2328 C.2       1 <0>        -0.1870
     24 S1         -2.6786   -3.1310   -3.5269 S.3       1 <0>        -0.0285
     25 C20        -1.4822   -2.3007   -2.4943 C.2       1 <0>        -0.1589
     26 C21        -2.4147    0.0202    0.0097 C.2       1 <0>         0.5844
     27 O2         -2.4290    1.2383    0.0251 O.2       1 <0>        -0.5605
     28 N2         -3.5738   -0.6675    0.0171 N.am      1 <0>        -0.6802
     29 C22        -4.7908    0.0136    0.1336 C.ar      1 <0>         0.1413
     30 C23        -4.9468    1.2643   -0.4486 C.ar      1 <0>        -0.1007
     31 C24        -6.1494    1.9341   -0.3323 C.ar      1 <0>        -0.1121
     32 C25        -7.1983    1.3610    0.3631 C.ar      1 <0>        -0.1243
     33 C26        -7.0479    0.1158    0.9452 C.ar      1 <0>        -0.1367
     34 C27        -5.8487   -0.5632    0.8281 C.ar      1 <0>         0.0548
     35 F1         -5.7036   -1.7824    1.3916 F         1 <0>        -0.1400
     36 H3          1.0031    1.8818   -0.0204 H         1 <0>         0.0505
     37 H4         -0.5540    1.8704   -0.8827 H         1 <0>         0.0749
     38 H5         -0.5220    1.8499    0.8969 H         1 <0>         0.0746
     39 H6          2.1114   -4.9424    0.9120 H         1 <0>         0.0803
     40 H7          1.7263   -5.7136   -0.6461 H         1 <0>         0.0760
     41 H8          3.1112   -2.6150    0.9309 H         1 <0>         0.0826
     42 H9          3.4137   -1.7832   -0.6146 H         1 <0>         0.0822
     43 H10         4.2308   -4.4799    1.3465 H         1 <0>         0.1226
     44 H11         6.4919   -5.4538    1.3933 H         1 <0>         0.1188
     45 H12         7.6659   -5.9421   -0.7154 H         1 <0>         0.1168
     46 H13         6.5785   -5.4572   -2.8708 H         1 <0>         0.1183
     47 H14         4.3141   -4.4911   -2.9175 H         1 <0>         0.1210
     48 H15        -3.3238   -3.7965   -0.1396 H         1 <0>         0.1238
     49 H16        -4.5021   -4.5423   -2.3165 H         1 <0>         0.1747
     50 H17        -0.6556   -1.6689   -2.7841 H         1 <0>         0.1695
     51 H18        -3.5646   -1.6345   -0.0584 H         1 <0>         0.4127
     52 H19        -4.1285    1.7134   -0.9917 H         1 <0>         0.1504
     53 H20        -6.2704    2.9071   -0.7850 H         1 <0>         0.1273
     54 H21        -8.1371    1.8874    0.4521 H         1 <0>         0.1271
     55 H22        -7.8690   -0.3289    1.4880 H         1 <0>         0.1325
@<TRIPOS>BOND
     1    1    2 1
     2    1   36 1
     3    1   37 1
     4    1   38 1
     5    2   13 1
     6    2    3 2
     7    3    4 1
     8    3   26 1
     9    4    5 1
    10    4    6 1
    11    4   21 1
    12    6   12 1
    13    6    7 2
    14    7    8 1
    15    7   20 1
    16    8    9 1
    17    8   39 1
    18    8   40 1
    19    9   10 1
    20    9   11 1
    21    9   14 1
    22   11   12 1
    23   11   41 1
    24   11   42 1
    25   12   13 2
    26   14   19 ar
    27   14   15 ar
    28   15   16 ar
    29   15   43 1
    30   16   17 ar
    31   16   44 1
    32   17   18 ar
    33   17   45 1
    34   18   19 ar
    35   18   46 1
    36   19   47 1
    37   21   25 2
    38   21   22 1
    39   22   23 2
    40   22   48 1
    41   23   24 1
    42   23   49 1
    43   24   25 1
    44   25   50 1
    45   26   27 2
    46   26   28 am
    47   28   29 1
    48   28   51 1
    49   29   34 ar
    50   29   30 ar
    51   30   31 ar
    52   30   52 1
    53   31   32 ar
    54   31   53 1
    55   32   33 ar
    56   32   54 1
    57   33   34 ar
    58   33   55 1
    59   34   35 1
@<TRIPOS>MOLECULE
ZINC00393490
   56    58     0     0     0
SMALL
USER_CHARGES
2-(dicyclohexylcarbamoyl)cyclohexane-1-carboxylic acid
@<TRIPOS>ATOM
      1 C1          3.8041    4.8712    0.4226 C.3       1 <0>        -0.1204
      2 C2          2.3035    5.1656    0.4722 C.3       1 <0>        -0.1105
      3 C3          1.5602    4.1797   -0.4312 C.3       1 <0>        -0.1348
      4 C4          2.0617    4.3277   -1.8691 C.3       1 <0>         0.1648
      5 C5          3.5623    4.0333   -1.9187 C.3       1 <0>        -0.1378
      6 C6          4.3056    5.0193   -1.0152 C.3       1 <0>        -0.1120
      7 N1          1.3500    3.3836   -2.7342 N.am      1 <0>        -0.6327
      8 C7          0.6570    3.8663   -3.9313 C.3       1 <0>         0.1585
      9 C8         -0.7827    3.3485   -3.9308 C.3       1 <0>        -0.2102
     10 C9         -1.5064    3.8526   -5.1810 C.3       1 <0>        -0.1140
     11 C10        -0.7822    3.3445   -6.4292 C.3       1 <0>        -0.1294
     12 C11         0.6575    3.8623   -6.4297 C.3       1 <0>        -0.1133
     13 C12         1.3813    3.3582   -5.1795 C.3       1 <0>        -0.1882
     14 C13         1.3327    2.0711   -2.4287 C.2       1 <0>         0.5638
     15 O1          2.2448    1.5839   -1.7949 O.2       1 <0>        -0.5017
     16 C14         0.1801    1.2087   -2.8748 C.3       1 <0>        -0.0957
     17 H1         -0.7598    1.6944   -2.6125 H         1 <0>         0.1018
     18 C15         0.2470    1.0121   -4.3906 C.3       1 <0>        -0.1840
     19 C16         1.5664    0.3303   -4.7587 C.3       1 <0>        -0.1215
     20 C17         1.6486   -1.0303   -4.0638 C.3       1 <0>        -0.1153
     21 C18         1.5817   -0.8336   -2.5479 C.3       1 <0>        -0.1160
     22 C19         0.2624   -0.1519   -2.1799 C.3       1 <0>        -0.1114
     23 H2         -0.5713   -0.7756   -2.5025 H         1 <0>         0.0645
     24 C20         0.1964    0.0418   -0.6868 C.2       1 <0>         0.4756
     25 O2          0.0942    1.1540   -0.2258 O.co2     1 <0>        -0.6342
     26 H3          4.3336    5.5737    1.0663 H         1 <0>         0.0546
     27 H4          3.9863    3.8536    0.7680 H         1 <0>         0.0656
     28 H5          2.1213    6.1833    0.1269 H         1 <0>         0.0525
     29 H6          1.9462    5.0602    1.4966 H         1 <0>         0.0607
     30 H7          0.4911    4.3894   -0.3959 H         1 <0>         0.0590
     31 H8          1.7424    3.1620   -0.0858 H         1 <0>         0.0949
     32 H9          1.8795    5.3454   -2.2145 H         1 <0>         0.0696
     33 H10         3.7445    3.0157   -1.5733 H         1 <0>         0.0938
     34 H11         3.9196    4.1388   -2.9431 H         1 <0>         0.0515
     35 H12         4.1234    6.0370   -1.3606 H         1 <0>         0.0534
     36 H13         5.3746    4.8096   -1.0506 H         1 <0>         0.0573
     37 H14         0.6511    4.9563   -3.9330 H         1 <0>         0.0778
     38 H15        -0.7768    2.2585   -3.9290 H         1 <0>         0.1379
     39 H16        -1.2987    3.7105   -3.0415 H         1 <0>         0.0683
     40 H17        -1.5123    4.9426   -5.1827 H         1 <0>         0.0574
     41 H18        -2.5321    3.4837   -5.1806 H         1 <0>         0.0637
     42 H19        -1.2978    3.7036   -7.3199 H         1 <0>         0.0612
     43 H20        -0.7763    2.2545   -6.4275 H         1 <0>         0.0681
     44 H21         0.6517    4.9523   -6.4315 H         1 <0>         0.0596
     45 H22         1.1735    3.5003   -7.3190 H         1 <0>         0.0621
     46 H23         2.4069    3.7271   -5.1799 H         1 <0>         0.0629
     47 H24         1.3872    2.2682   -5.1778 H         1 <0>         0.1183
     48 H25         0.1885    1.9814   -4.8857 H         1 <0>         0.1345
     49 H26        -0.5866    0.3884   -4.7132 H         1 <0>         0.0675
     50 H27         2.4000    0.9541   -4.4361 H         1 <0>         0.0627
     51 H28         1.6141    0.1902   -5.8386 H         1 <0>         0.0564
     52 H29         0.8150   -1.6540   -4.3864 H         1 <0>         0.0531
     53 H30         2.5885   -1.5160   -4.3260 H         1 <0>         0.0527
     54 H31         1.6403   -1.8029   -2.0529 H         1 <0>         0.0591
     55 H32         2.4153   -0.2099   -2.2253 H         1 <0>         0.0948
     56 O3          0.2513   -1.0212    0.1309 O.co2     1 <0>        -0.7771
@<TRIPOS>BOND
     1    1    6 1
     2    1    2 1
     3    1   26 1
     4    1   27 1
     5    2    3 1
     6    2   28 1
     7    2   29 1
     8    3    4 1
     9    3   30 1
    10    3   31 1
    11    4    5 1
    12    4    7 1
    13    4   32 1
    14    5    6 1
    15    5   33 1
    16    5   34 1
    17    6   35 1
    18    6   36 1
    19    7    8 1
    20    7   14 am
    21    8   13 1
    22    8    9 1
    23    8   37 1
    24    9   10 1
    25    9   38 1
    26    9   39 1
    27   10   11 1
    28   10   40 1
    29   10   41 1
    30   11   12 1
    31   11   42 1
    32   11   43 1
    33   12   13 1
    34   12   44 1
    35   12   45 1
    36   13   46 1
    37   13   47 1
    38   14   15 2
    39   14   16 1
    40   16   17 1
    41   16   22 1
    42   16   18 1
    43   18   19 1
    44   18   48 1
    45   18   49 1
    46   19   20 1
    47   19   50 1
    48   19   51 1
    49   20   21 1
    50   20   52 1
    51   20   53 1
    52   21   22 1
    53   21   54 1
    54   21   55 1
    55   22   23 1
    56   22   24 1
    57   24   25 2
    58   24   56 1
@<TRIPOS>MOLECULE
ZINC02647378
   43    45     0     0     0
SMALL
USER_CHARGES

@<TRIPOS>ATOM
      1 C1         -0.0187    1.5258    0.0104 C.3       1 <0>        -0.1258
      2 C2          0.0021   -0.0041    0.0020 C.3       1 <0>        -0.1098
      3 C3          0.7421   -0.5109    1.2415 C.3       1 <0>        -0.1299
      4 C4         -1.4333   -0.5336    0.0129 C.3       1 <0>        -0.1299
      5 C5          0.7074   -0.4901   -1.2379 C.2       1 <0>         0.3909
      6 O1          1.1521    0.3124   -2.0401 O.2       1 <0>        -0.4740
      7 C6          0.8500   -1.8451   -1.4651 C.2       1 <0>        -0.3508
      8 C7          1.5051   -2.2966   -2.6168 C.2       1 <0>         0.2961
      9 N1          2.0635   -1.5813   -3.6065 N.2       1 <0>        -0.6169
     10 C8          2.6400   -2.1528   -4.6185 C.2       1 <0>         0.4580
     11 O2          3.1973   -1.4133   -5.6058 O.3       1 <0>        -0.6139
     12 C9          2.6735   -3.5729   -4.6669 C.2       1 <0>        -0.1231
     13 C10         3.2186   -4.4114   -5.6217 C.2       1 <0>        -0.0087
     14 C11         3.1346   -5.8060   -5.4630 C.2       1 <0>         0.0326
     15 C12         3.6409   -6.7561   -6.3373 C.2       1 <0>        -0.1803
     16 C13         3.3366   -8.0049   -5.7959 C.2       1 <0>        -0.1825
     17 C14         2.6589   -7.7795   -4.6166 C.2       1 <0>         0.0182
     18 O3          2.5521   -6.4518   -4.4303 O.3       1 <0>        -0.1391
     19 C15         2.1428   -8.8204   -3.7080 C.ar      1 <0>        -0.0188
     20 C16         2.3301  -10.1720   -4.0110 C.ar      1 <0>        -0.0725
     21 C17         1.8454  -11.1402   -3.1579 C.ar      1 <0>        -0.1504
     22 C18         1.1734  -10.7756   -2.0013 C.ar      1 <0>         0.0978
     23 C19         0.9841   -9.4366   -1.6956 C.ar      1 <0>        -0.1471
     24 C20         1.4696   -8.4592   -2.5376 C.ar      1 <0>        -0.0710
     25 F1          0.7007  -11.7290   -1.1691 F         1 <0>        -0.1394
     26 S1          1.8217   -3.9742   -3.1462 S.3       1 <0>        -0.1715
     27 H1          1.0039    1.9031    0.0027 H         1 <0>         0.0559
     28 H2         -0.5459    1.8868   -0.8726 H         1 <0>         0.0559
     29 H3         -0.5289    1.8773    0.9072 H         1 <0>         0.0474
     30 H4          0.2319   -0.1594    2.1383 H         1 <0>         0.0529
     31 H5          0.7568   -1.6008    1.2356 H         1 <0>         0.0597
     32 H6          1.7647   -0.1336    1.2338 H         1 <0>         0.0537
     33 H7         -1.9605   -0.1726   -0.8702 H         1 <0>         0.0537
     34 H8         -1.4185   -1.6235    0.0069 H         1 <0>         0.0597
     35 H9         -1.9435   -0.1821    0.9097 H         1 <0>         0.0529
     36 H10         0.4559   -2.5563   -0.7542 H         1 <0>         0.1213
     37 H11         3.7089   -3.9952   -6.4893 H         1 <0>         0.1748
     38 H12         4.1689   -6.5657   -7.2600 H         1 <0>         0.1581
     39 H13         3.5845   -8.9666   -6.2204 H         1 <0>         0.1529
     40 H14         2.8531  -10.4571   -4.9119 H         1 <0>         0.1387
     41 H15         1.9892  -12.1848   -3.3911 H         1 <0>         0.1400
     42 H16         0.4595   -9.1588   -0.7933 H         1 <0>         0.1406
     43 H17         1.3258   -7.4164   -2.2960 H         1 <0>         0.1436
@<TRIPOS>BOND
     1    1    2 1
     2    1   27 1
     3    1   28 1
     4    1   29 1
     5    2    3 1
     6    2    4 1
     7    2    5 1
     8    3   30 1
     9    3   31 1
    10    3   32 1
    11    4   33 1
    12    4   34 1
    13    4   35 1
    14    5    6 2
    15    5    7 1
    16    7    8 2
    17    7   36 1
    18    8   26 1
    19    8    9 1
    20    9   10 2
    21   10   11 1
    22   10   12 1
    23   12   13 2
    24   12   26 1
    25   13   14 1
    26   13   37 1
    27   14   18 1
    28   14   15 2
    29   15   16 1
    30   15   38 1
    31   16   17 2
    32   16   39 1
    33   17   18 1
    34   17   19 1
    35   19   24 ar
    36   19   20 ar
    37   20   21 ar
    38   20   40 1
    39   21   22 ar
    40   21   41 1
    41   22   23 ar
    42   22   25 1
    43   23   24 ar
    44   23   42 1
    45   24   43 1
@<TRIPOS>MOLECULE
ZINC39870106
   42    44     0     0     0
SMALL
USER_CHARGES

@<TRIPOS>ATOM
      1 C1         -0.6162    0.8830    0.1651 C.3       1 <0>        -0.1528
      2 C2         -0.5233   -0.6416    0.0765 C.3       1 <0>        -0.1244
      3 C3          0.2617   -1.0328   -1.1772 C.3       1 <0>        -0.1152
      4 C4          0.3546   -2.5574   -1.2657 C.3       1 <0>        -0.0680
      5 C5          1.1278   -2.9426   -2.5006 C.ar      1 <0>        -0.1330
      6 C6          0.4633   -3.1390   -3.6973 C.ar      1 <0>        -0.1033
      7 C7          1.1688   -3.4925   -4.8307 C.ar      1 <0>        -0.1480
      8 C8          2.5474   -3.6504   -4.7677 C.ar      1 <0>         0.1522
      9 C9          3.2118   -3.4520   -3.5641 C.ar      1 <0>        -0.1374
     10 C10         2.5009   -3.0935   -2.4357 C.ar      1 <0>        -0.1073
     11 N1          3.2646   -4.0087   -5.9130 N.2       1 <0>        -0.5637
     12 C11         2.7621   -3.7200   -7.1538 C.2       1 <0>         0.4222
     13 N2          1.7214   -2.9619   -7.4622 N.2       1 <0>        -0.7100
     14 C12         1.3370   -2.7616   -8.7028 C.2       1 <0>         0.5284
     15 O1          0.3764   -2.0605   -8.9747 O.2       1 <0>        -0.5380
     16 C13         2.1388   -3.4371   -9.7557 C.2       1 <0>        -0.1585
     17 C14         1.9917   -3.4222  -11.1019 C.2       1 <0>        -0.0467
     18 C15         2.8544   -4.2642  -11.9458 C.ar      1 <0>        -0.0088
     19 C16         2.6266   -4.3761  -13.3252 C.ar      1 <0>        -0.1604
     20 C17         3.4613   -5.1765  -14.0771 C.ar      1 <0>         0.0928
     21 N3          4.4604   -5.8302  -13.5162 N.ar      1 <0>        -0.4922
     22 C18         4.7110   -5.7539  -12.2233 C.ar      1 <0>         0.1042
     23 C19         3.9319   -4.9733  -11.3949 C.ar      1 <0>        -0.1612
     24 S1          3.3577   -4.2692   -8.7454 S.3       1 <0>        -0.1069
     25 H1          0.3871    1.3057    0.2180 H         1 <0>         0.0527
     26 H2         -1.1265    1.2678   -0.7179 H         1 <0>         0.0535
     27 H3         -1.1755    1.1616    1.0582 H         1 <0>         0.0498
     28 H4         -0.0131   -1.0265    0.9595 H         1 <0>         0.0585
     29 H5         -1.5266   -1.0643    0.0235 H         1 <0>         0.0590
     30 H6         -0.2486   -0.6480   -2.0602 H         1 <0>         0.0623
     31 H7          1.2650   -0.6101   -1.1242 H         1 <0>         0.0611
     32 H8          0.8648   -2.9422   -0.3828 H         1 <0>         0.0620
     33 H9         -0.6487   -2.9801   -1.3187 H         1 <0>         0.0622
     34 H10        -0.6086   -3.0160   -3.7456 H         1 <0>         0.1065
     35 H11         0.6491   -3.6464   -5.7649 H         1 <0>         0.1349
     36 H12         4.2836   -3.5743   -3.5116 H         1 <0>         0.1140
     37 H13         3.0173   -2.9351   -1.5004 H         1 <0>         0.1098
     38 H14         1.2411   -2.7923  -11.5561 H         1 <0>         0.1506
     39 H15         1.8104   -3.8442  -13.7913 H         1 <0>         0.1377
     40 H16         3.2942   -5.2697  -15.1400 H         1 <0>         0.1547
     41 H17         5.5403   -6.3074  -11.8082 H         1 <0>         0.1572
     42 H18         4.1458   -4.9121  -10.3380 H         1 <0>         0.1494
@<TRIPOS>BOND
     1    1    2 1
     2    1   25 1
     3    1   26 1
     4    1   27 1
     5    2    3 1
     6    2   28 1
     7    2   29 1
     8    3    4 1
     9    3   30 1
    10    3   31 1
    11    4    5 1
    12    4   32 1
    13    4   33 1
    14    5   10 ar
    15    5    6 ar
    16    6    7 ar
    17    6   34 1
    18    7    8 ar
    19    7   35 1
    20    8    9 ar
    21    8   11 1
    22    9   10 ar
    23    9   36 1
    24   10   37 1
    25   11   12 1
    26   12   24 1
    27   12   13 2
    28   13   14 1
    29   14   15 2
    30   14   16 1
    31   16   17 2
    32   16   24 1
    33   17   18 1
    34   17   38 1
    35   18   23 ar
    36   18   19 ar
    37   19   20 ar
    38   19   39 1
    39   20   21 ar
    40   20   40 1
    41   21   22 ar
    42   22   23 ar
    43   22   41 1
    44   23   42 1
@<TRIPOS>MOLECULE
ZINC49202770
   33    35     0     0     0
SMALL
USER_CHARGES

@<TRIPOS>ATOM
      1 C1         -0.0166    1.3749    0.0096 C.ar      1 <0>        -0.1301
      2 C2          1.1700    2.0875    0.0021 C.ar      1 <0>        -0.0919
      3 C3          2.3830    1.4237   -0.0130 C.ar      1 <0>        -0.1531
      4 C4          2.4176    0.0420   -0.0212 C.ar      1 <0>         0.1115
      5 C5          1.2221   -0.6830   -0.0136 C.ar      1 <0>        -0.0267
      6 C6          0.0021   -0.0041    0.0020 C.ar      1 <0>        -0.0727
      7 C7          1.2495   -2.1598   -0.0228 C.2       1 <0>        -0.1681
      8 C8          0.5765   -3.0480    0.8011 C.2       1 <0>        -0.1373
      9 C9          0.7555   -4.3889    0.6076 C.2       1 <0>        -0.1252
     10 C10         1.6046   -4.8080   -0.4070 C.2       1 <0>        -0.1869
     11 S1          2.1520   -3.2578   -1.1029 S.3       1 <0>         0.1567
     12 C11         1.9570   -6.1733   -0.8081 C.2       1 <0>         0.4844
     13 C12         2.8848   -6.3937   -1.9206 C.2       1 <0>        -0.4099
     14 C13         3.4474   -5.2754   -2.6161 C.1       1 <0>         0.2927
     15 N1          3.8936   -4.3883   -3.1678 N.1       1 <0>        -0.4953
     16 C14         3.2205   -7.6944   -2.3027 C.2       1 <0>         0.4083
     17 O1          2.6898   -8.7494   -1.6466 O.3       1 <0>        -0.5790
     18 C15         4.1166   -7.9072   -3.3773 C.2       1 <0>        -0.0241
     19 C16         4.5295   -9.1324   -3.8622 C.2       1 <0>        -0.1547
     20 C17         5.4085   -8.8663   -4.9213 C.2       1 <0>        -0.2278
     21 C18         5.4971   -7.5220   -5.0402 C.2       1 <0>        -0.0361
     22 O2          4.7161   -6.9489   -4.1152 O.3       1 <0>        -0.1511
     23 O3          1.4779   -7.1257   -0.2158 O.2       1 <0>        -0.4651
     24 F1          3.6029   -0.6061   -0.0368 F         1 <0>        -0.1275
     25 H1         -0.9600    1.9004    0.0259 H         1 <0>         0.1319
     26 H2          1.1483    3.1673    0.0077 H         1 <0>         0.1326
     27 H3          3.3051    1.9860   -0.0188 H         1 <0>         0.1374
     28 H4         -0.9252   -0.5578    0.0079 H         1 <0>         0.1360
     29 H5         -0.0769   -2.6872    1.5817 H         1 <0>         0.1311
     30 H6          0.2464   -5.1082    1.2320 H         1 <0>         0.1416
     31 H7          4.2337  -10.1047   -3.4968 H         1 <0>         0.1545
     32 H8          5.9200   -9.5983   -5.5288 H         1 <0>         0.1466
     33 H9          6.0980   -6.9952   -5.7666 H         1 <0>         0.1971
@<TRIPOS>BOND
     1    1    6 ar
     2    1    2 ar
     3    1   25 1
     4    2    3 ar
     5    2   26 1
     6    3    4 ar
     7    3   27 1
     8    4    5 ar
     9    4   24 1
    10    5    6 ar
    11    5    7 1
    12    6   28 1
    13    7   11 1
    14    7    8 2
    15    8    9 1
    16    8   29 1
    17    9   10 2
    18    9   30 1
    19   10   11 1
    20   10   12 1
    21   12   13 1
    22   12   23 2
    23   13   14 1
    24   13   16 2
    25   14   15 3
    26   16   17 1
    27   16   18 1
    28   18   22 1
    29   18   19 2
    30   19   20 1
    31   19   31 1
    32   20   21 2
    33   20   32 1
    34   21   22 1
    35   21   33 1
@<TRIPOS>MOLECULE
ZINC57758225
   34    35     0     0     0
SMALL
USER_CHARGES

@<TRIPOS>ATOM
      1 C1          0.3689    1.2341    0.0620 C.3       1 <0>         0.0298
      2 O1          0.2880   -0.1927    0.0652 O.3       1 <0>        -0.3181
      3 C2         -0.9554   -0.7402    0.0337 C.ar      1 <0>         0.1258
      4 C3         -2.0747    0.0789   -0.0053 C.ar      1 <0>        -0.2215
      5 C4         -3.3373   -0.4800   -0.0377 C.ar      1 <0>        -0.0811
      6 C5         -3.4865   -1.8548   -0.0313 C.ar      1 <0>        -0.1549
      7 C6         -2.3730   -2.6731    0.0080 C.ar      1 <0>        -0.0292
      8 C7         -1.1076   -2.1189    0.0348 C.ar      1 <0>        -0.1446
      9 C8         -2.5392   -4.1709    0.0154 C.3       1 <0>        -0.0539
     10 C9         -2.6957   -4.6738   -1.4211 C.3       1 <0>        -0.1196
     11 H1         -3.5116   -4.1384   -1.9066 H         1 <0>         0.0779
     12 C10        -1.4158   -4.4337   -2.1795 C.ar      1 <0>        -0.0005
     13 C11        -0.2388   -5.0195   -1.7515 C.ar      1 <0>        -0.0971
     14 C12         0.9358   -4.7998   -2.4460 C.ar      1 <0>        -0.0967
     15 C13         0.9342   -3.9936   -3.5702 C.ar      1 <0>        -0.0461
     16 C14        -0.2444   -3.4074   -3.9990 C.ar      1 <0>        -0.0234
     17 C15        -1.4203   -3.6326   -3.3057 C.ar      1 <0>        -0.0978
     18 Cl1        -0.2480   -2.3950   -5.4093 Cl        1 <0>        -0.0677
     19 Cl2         2.4094   -3.7168   -4.4425 Cl        1 <0>        -0.0698
     20 C16        -3.0016   -6.1493   -1.4062 C.2       1 <0>         0.5038
     21 O2         -3.1771   -6.7249   -0.3458 O.co2     1 <0>        -0.6867
     22 O3         -3.0736   -6.7675   -2.4546 O.co2     1 <0>        -0.6864
     23 H2          1.4151    1.5387    0.0891 H         1 <0>         0.0958
     24 H3         -0.0994    1.6225   -0.8424 H         1 <0>         0.0527
     25 H4         -0.1473    1.6292    0.9369 H         1 <0>         0.0519
     26 H5         -1.9587    1.1527   -0.0100 H         1 <0>         0.1210
     27 H6         -4.2088    0.1571   -0.0677 H         1 <0>         0.1198
     28 H7         -4.4747   -2.2900   -0.0566 H         1 <0>         0.1232
     29 H8         -0.2379   -2.7587    0.0610 H         1 <0>         0.1262
     30 H9         -1.6613   -4.6317    0.4681 H         1 <0>         0.0734
     31 H10        -3.4260   -4.4352    0.5915 H         1 <0>         0.0866
     32 H11        -0.2372   -5.6489   -0.8739 H         1 <0>         0.1363
     33 H12         1.8549   -5.2572   -2.1107 H         1 <0>         0.1367
     34 H13        -2.3408   -3.1789   -3.6420 H         1 <0>         0.1342
@<TRIPOS>BOND
     1    1    2 1
     2    1   23 1
     3    1   24 1
     4    1   25 1
     5    2    3 1
     6    3    8 ar
     7    3    4 ar
     8    4    5 ar
     9    4   26 1
    10    5    6 ar
    11    5   27 1
    12    6    7 ar
    13    6   28 1
    14    7    8 ar
    15    7    9 1
    16    8   29 1
    17    9   10 1
    18    9   30 1
    19    9   31 1
    20   10   11 1
    21   10   12 1
    22   10   20 1
    23   12   17 ar
    24   12   13 ar
    25   13   14 ar
    26   13   32 1
    27   14   15 ar
    28   14   33 1
    29   15   16 ar
    30   15   19 1
    31   16   17 ar
    32   16   18 1
    33   17   34 1
    34   20   21 2
    35   20   22 1
@<TRIPOS>MOLECULE
ZINC67427921
   33    35     0     0     0
SMALL
USER_CHARGES

@<TRIPOS>ATOM
      1 C1          1.1537    1.4172   -0.0566 C.3       1 <0>        -0.1084
      2 C2          0.8864   -0.0659   -0.0490 C.ar      1 <0>        -0.1017
      3 C3          1.6702   -0.9029    0.7253 C.ar      1 <0>        -0.0951
      4 C4          1.4319   -2.2611    0.7376 C.ar      1 <0>        -0.0218
      5 C5          0.3954   -2.7934   -0.0348 C.ar      1 <0>        -0.0064
      6 C6         -0.3931   -1.9439   -0.8149 C.ar      1 <0>        -0.1323
      7 C7         -0.1468   -0.5844   -0.8133 C.ar      1 <0>         0.0745
      8 F1         -0.9110    0.2403   -1.5624 F         1 <0>        -0.1510
      9 C8          0.1359   -4.2437   -0.0265 C.2       1 <0>        -0.0645
     10 C9          0.1753   -4.9272    1.1310 C.2       1 <0>         0.0004
     11 C10         0.1723   -4.2038    2.4138 C.ar      1 <0>         0.3823
     12 N1         -0.0538   -2.8879    2.4070 N.ar      1 <0>        -0.6103
     13 C11        -0.0687   -2.1860    3.5262 C.ar      1 <0>         0.4684
     14 O1         -0.2995   -0.8530    3.5049 O.3       1 <0>        -0.6578
     15 C12         0.1623   -2.8626    4.7486 C.ar      1 <0>        -0.2300
     16 C13         0.1623   -2.1935    5.9774 C.ar      1 <0>        -0.0300
     17 C14         0.3896   -2.8948    7.1251 C.ar      1 <0>        -0.1879
     18 C15         0.6221   -4.2671    7.0910 C.ar      1 <0>        -0.0861
     19 C16         0.6293   -4.9492    5.9110 C.ar      1 <0>        -0.1382
     20 C17         0.3983   -4.2599    4.7112 C.ar      1 <0>         0.1876
     21 N2          0.3883   -4.8847    3.5273 N.ar      1 <0>        -0.5859
     22 Cl1         0.2298   -6.6622    1.1130 Cl        1 <0>        -0.0593
     23 H1          0.5729    1.8951    0.7323 H         1 <0>         0.0717
     24 H2          2.2152    1.5959    0.1147 H         1 <0>         0.0642
     25 H3          0.8663    1.8333   -1.0222 H         1 <0>         0.0613
     26 H4          2.4711   -0.4914    1.3216 H         1 <0>         0.1176
     27 H5          2.0452   -2.9125    1.3425 H         1 <0>         0.1081
     28 H6         -1.1953   -2.3483   -1.4144 H         1 <0>         0.1253
     29 H7         -0.0859   -4.7578   -0.9499 H         1 <0>         0.1375
     30 H8         -0.0161   -1.1290    6.0169 H         1 <0>         0.1220
     31 H9          0.3896   -2.3782    8.0736 H         1 <0>         0.1109
     32 H10         0.7998   -4.7993    8.0137 H         1 <0>         0.1137
     33 H11         0.8115   -6.0136    5.8997 H         1 <0>         0.1214
@<TRIPOS>BOND
     1    1    2 1
     2    1   23 1
     3    1   24 1
     4    1   25 1
     5    2    7 ar
     6    2    3 ar
     7    3    4 ar
     8    3   26 1
     9    4    5 ar
    10    4   27 1
    11    5    6 ar
    12    5    9 1
    13    6    7 ar
    14    6   28 1
    15    7    8 1
    16    9   10 2
    17    9   29 1
    18   10   11 1
    19   10   22 1
    20   11   21 ar
    21   11   12 ar
    22   12   13 ar
    23   13   14 1
    24   13   15 ar
    25   15   20 ar
    26   15   16 ar
    27   16   17 ar
    28   16   30 1
    29   17   18 ar
    30   17   31 1
    31   18   19 ar
    32   18   32 1
    33   19   20 ar
    34   19   33 1
    35   20   21 ar
@<TRIPOS>MOLECULE
ZINC05479633
   41    44     0     0     0
SMALL
USER_CHARGES
3-benzhydryl-6-bromo-4-hydroxy-naphthalene-1,2-dione
@<TRIPOS>ATOM
      1 C1          4.6440   -2.7594    3.5801 C.ar      1 <0>        -0.1491
      2 C2          4.7377   -3.4073    2.3625 C.ar      1 <0>        -0.1202
      3 C3          4.4772   -2.7198    1.1919 C.ar      1 <0>        -0.1070
      4 C4          4.1234   -1.3843    1.2388 C.ar      1 <0>         0.0163
      5 C5          4.0353   -0.7349    2.4560 C.ar      1 <0>        -0.1148
      6 C6          4.2907   -1.4238    3.6269 C.ar      1 <0>        -0.1195
      7 C7          3.8399   -0.6346   -0.0374 C.3       1 <0>         0.0839
      8 C8          4.0639   -1.5466   -1.2160 C.ar      1 <0>        -0.0434
      9 C9          3.2041   -2.6047   -1.4445 C.ar      1 <0>        -0.0981
     10 C10         3.4068   -3.4383   -2.5284 C.ar      1 <0>        -0.1337
     11 C11         4.4751   -3.2199   -3.3781 C.ar      1 <0>        -0.1386
     12 C12         5.3381   -2.1652   -3.1464 C.ar      1 <0>        -0.1297
     13 C13         5.1324   -1.3284   -2.0655 C.ar      1 <0>        -0.1207
     14 C14         2.4095   -0.1602   -0.0340 C.2       1 <0>        -0.4452
     15 C15         1.4740   -0.8813    0.6393 C.2       1 <0>         0.3418
     16 C16         0.0609   -0.4663    0.6770 C.ar      1 <0>        -0.0330
     17 C17        -0.8798   -1.2197    1.3726 C.ar      1 <0>        -0.0606
     18 C18        -2.2064   -0.8150    1.3981 C.ar      1 <0>        -0.0739
     19 C19        -2.6045    0.3330    0.7371 C.ar      1 <0>        -0.1040
     20 C20        -1.6824    1.0922    0.0349 C.ar      1 <0>        -0.0681
     21 C21        -0.3482    0.7024    0.0051 C.ar      1 <0>        -0.1348
     22 C22         0.6595    1.4944   -0.7302 C.2       1 <0>         0.3629
     23 O1          0.3462    2.5065   -1.3215 O.2       1 <0>        -0.4240
     24 C23         2.0772    1.0141   -0.7263 C.2       1 <0>         0.3582
     25 O2          2.9364    1.6385   -1.3196 O.3       1 <0>        -0.5012
     26 Br1        -3.4815   -1.8413    2.3450 Br        1 <0>        -0.0544
     27 O3          1.8491   -2.0043    1.2894 O.2       1 <0>        -0.6015
     28 H1          4.8472   -3.2967    4.4947 H         1 <0>         0.1020
     29 H2          5.0141   -4.4507    2.3259 H         1 <0>         0.1025
     30 H3          4.5504   -3.2259    0.2407 H         1 <0>         0.1124
     31 H4          3.7633    0.3096    2.4923 H         1 <0>         0.1059
     32 H5          4.2179   -0.9176    4.5782 H         1 <0>         0.1034
     33 H6          4.5135    0.2319   -0.1111 H         1 <0>         0.0763
     34 H7          2.3719   -2.7778   -0.7782 H         1 <0>         0.1363
     35 H8          2.7327   -4.2625   -2.7092 H         1 <0>         0.1113
     36 H9          4.6356   -3.8734   -4.2228 H         1 <0>         0.1096
     37 H10         6.1729   -1.9947   -3.8100 H         1 <0>         0.1114
     38 H11         5.8067   -0.5044   -1.8844 H         1 <0>         0.1150
     39 H12        -0.5777   -2.1172    1.8917 H         1 <0>         0.1500
     40 H13        -3.6405    0.6367    0.7646 H         1 <0>         0.1356
     41 H14        -1.9978    1.9858   -0.4830 H         1 <0>         0.1407
@<TRIPOS>BOND
     1    1    6 ar
     2    1    2 ar
     3    1   28 1
     4    2    3 ar
     5    2   29 1
     6    3    4 ar
     7    3   30 1
     8    4    5 ar
     9    4    7 1
    10    5    6 ar
    11    5   31 1
    12    6   32 1
    13    7    8 1
    14    7   33 1
    15    7   14 1
    16    8   13 ar
    17    8    9 ar
    18    9   10 ar
    19    9   34 1
    20   10   11 ar
    21   10   35 1
    22   11   12 ar
    23   11   36 1
    24   12   13 ar
    25   12   37 1
    26   13   38 1
    27   14   24 2
    28   14   15 1
    29   15   16 1
    30   15   27 2
    31   16   21 ar
    32   16   17 ar
    33   17   18 ar
    34   17   39 1
    35   18   19 ar
    36   18   26 1
    37   19   20 ar
    38   19   40 1
    39   20   21 ar
    40   20   41 1
    41   21   22 1
    42   22   23 2
    43   22   24 1
    44   24   25 1
@<TRIPOS>MOLECULE
ZINC13544973
   41    44     0     0     0
SMALL
USER_CHARGES

@<TRIPOS>ATOM
      1 C1         -0.0164    1.3568    0.0095 C.ar      1 <0>        -0.1021
      2 C2          1.1685    2.0903    0.0021 C.ar      1 <0>        -0.1275
      3 C3          2.3786    1.4667   -0.0127 C.ar      1 <0>        -0.0850
      4 C4          2.4373    0.0638   -0.0208 C.ar      1 <0>        -0.0693
      5 C5          1.2329   -0.6827   -0.0133 C.ar      1 <0>        -0.0192
      6 C6          0.0021   -0.0041    0.0020 C.ar      1 <0>        -0.1164
      7 C7          1.2917   -2.0866   -0.0208 C.ar      1 <0>        -0.1428
      8 C8          2.5010   -2.7126   -0.0352 C.ar      1 <0>        -0.0757
      9 C9          3.6868   -1.9838   -0.0426 C.ar      1 <0>        -0.2209
     10 C10         3.6713   -0.6172   -0.0357 C.ar      1 <0>         0.1473
     11 O1          4.8369    0.0798   -0.0435 O.3       1 <0>        -0.3025
     12 C11         6.0470   -0.6800   -0.0585 C.3       1 <0>         0.0740
     13 C12         7.2459    0.2705   -0.0655 C.3       1 <0>        -0.1027
     14 S1          8.7822   -0.6940   -0.0846 S.3       1 <0>         0.0057
     15 C13        10.0522    0.5274   -0.0910 C.2       1 <0>         0.3751
     16 N1         11.3535    0.1132   -0.1109 N.am      1 <0>        -0.6353
     17 H1         11.5570   -0.8351   -0.1211 H         1 <0>         0.4227
     18 C14        12.3609    1.0169   -0.1169 C.2       1 <0>         0.5578
     19 O2         13.5258    0.6640   -0.1350 O.2       1 <0>        -0.5023
     20 C15        11.9958    2.4399   -0.1013 C.ar      1 <0>        -0.2005
     21 C16        12.9591    3.4477   -0.1065 C.ar      1 <0>        -0.0385
     22 C17        12.5645    4.7570   -0.0918 C.ar      1 <0>        -0.1366
     23 C18        11.2166    5.0919   -0.0713 C.ar      1 <0>        -0.0683
     24 C19        10.2517    4.1246   -0.0654 C.ar      1 <0>        -0.1104
     25 C20        10.6231    2.7768   -0.0810 C.ar      1 <0>         0.1656
     26 N2          9.7040    1.7904   -0.0817 N.2       1 <0>        -0.5252
     27 H2         -0.9633    1.8759    0.0259 H         1 <0>         0.1252
     28 H3          1.1262    3.1695    0.0079 H         1 <0>         0.1252
     29 H4          3.2887    2.0480   -0.0187 H         1 <0>         0.1319
     30 H5         -0.9241   -0.5596    0.0082 H         1 <0>         0.1306
     31 H6          0.3810   -2.6672   -0.0149 H         1 <0>         0.1293
     32 H7          2.5405   -3.7919   -0.0406 H         1 <0>         0.1265
     33 H8          4.6324   -2.5056   -0.0537 H         1 <0>         0.1284
     34 H9          6.0900   -1.3125    0.8281 H         1 <0>         0.0778
     35 H10         6.0731   -1.3042   -0.9517 H         1 <0>         0.0778
     36 H11         7.2030    0.9030   -0.9521 H         1 <0>         0.1146
     37 H12         7.2199    0.8947    0.8277 H         1 <0>         0.1146
     38 H13        14.0093    3.1963   -0.1216 H         1 <0>         0.1394
     39 H14        13.3091    5.5393   -0.0958 H         1 <0>         0.1353
     40 H15        10.9270    6.1323   -0.0596 H         1 <0>         0.1363
     41 H16         9.2075    4.3997   -0.0487 H         1 <0>         0.1403
@<TRIPOS>BOND
     1    1    6 ar
     2    1    2 ar
     3    1   27 1
     4    2    3 ar
     5    2   28 1
     6    3    4 ar
     7    3   29 1
     8    4   10 ar
     9    4    5 ar
    10    5    6 ar
    11    5    7 ar
    12    6   30 1
    13    7    8 ar
    14    7   31 1
    15    8    9 ar
    16    8   32 1
    17    9   10 ar
    18    9   33 1
    19   10   11 1
    20   11   12 1
    21   12   13 1
    22   12   34 1
    23   12   35 1
    24   13   14 1
    25   13   36 1
    26   13   37 1
    27   14   15 1
    28   15   26 2
    29   15   16 1
    30   16   17 1
    31   16   18 am
    32   18   19 2
    33   18   20 1
    34   20   25 ar
    35   20   21 ar
    36   21   22 ar
    37   21   38 1
    38   22   23 ar
    39   22   39 1
    40   23   24 ar
    41   23   40 1
    42   24   25 ar
    43   24   41 1
    44   25   26 1
@<TRIPOS>MOLECULE
ZINC39843130
   46    48     0     0     0
SMALL
USER_CHARGES

@<TRIPOS>ATOM
      1 C1          0.2715    2.6591   -0.4639 C.3       1 <0>        -0.1396
      2 C2          0.2494    1.1599   -0.1593 C.3       1 <0>        -0.0295
      3 C3          1.0268    0.8900    1.1306 C.3       1 <0>        -0.1365
      4 C4         -1.1984    0.6954    0.0112 C.3       1 <0>        -0.1431
      5 C5          0.8879    0.4065   -1.2976 C.ar      1 <0>        -0.0659
      6 C6          0.1569   -0.5321   -2.0015 C.ar      1 <0>        -0.1270
      7 C7          0.7426   -1.2231   -3.0457 C.ar      1 <0>        -0.0892
      8 C8          2.0592   -0.9753   -3.3862 C.ar      1 <0>        -0.1251
      9 C9          2.7900   -0.0361   -2.6828 C.ar      1 <0>        -0.0834
     10 C10         2.2030    0.6581   -1.6414 C.ar      1 <0>        -0.1158
     11 C11         2.6980   -1.7294   -4.5239 C.3       1 <0>         0.4271
     12 H1          3.1586   -2.6403   -4.1416 H         1 <0>         0.1107
     13 N1          1.6754   -2.0784   -5.5117 N.am      1 <0>        -0.7423
     14 C12         1.3828   -1.2369   -6.5232 C.2       1 <0>         0.5999
     15 O1          0.5015   -1.5154   -7.3160 O.2       1 <0>        -0.5644
     16 C13         2.1308    0.0147   -6.6630 C.2       1 <0>        -0.3124
     17 C14         3.3308    0.1558   -5.9460 C.2       1 <0>         0.4454
     18 N2          3.7244   -0.8896   -5.1503 N.pl3     1 <0>        -0.5713
     19 C15         5.0826   -1.1489   -4.9391 C.ar      1 <0>         0.1628
     20 C16         5.6572   -2.3064   -5.4481 C.ar      1 <0>        -0.1124
     21 C17         6.9986   -2.5597   -5.2385 C.ar      1 <0>        -0.1093
     22 C18         7.7700   -1.6616   -4.5220 C.ar      1 <0>        -0.0352
     23 C19         7.1999   -0.5077   -4.0133 C.ar      1 <0>        -0.1066
     24 C20         5.8603   -0.2466   -4.2249 C.ar      1 <0>        -0.0631
     25 Cl1         9.4557   -1.9831   -4.2604 Cl        1 <0>        -0.0820
     26 S1          4.2961    1.6249   -6.0654 S.3       1 <0>        -0.7830
     27 C21         1.6519    1.0665   -7.5085 C.1       1 <0>         0.3358
     28 N3          1.2720    1.9010   -8.1792 N.1       1 <0>        -0.4941
     29 H2          1.3029    2.9900   -0.5854 H         1 <0>         0.0582
     30 H3         -0.2824    2.8513   -1.3828 H         1 <0>         0.0576
     31 H4         -0.1903    3.2040    0.3594 H         1 <0>         0.0555
     32 H5          0.5650    1.4350    1.9539 H         1 <0>         0.0554
     33 H6          1.0111   -0.1780    1.3476 H         1 <0>         0.0552
     34 H7          2.0583    1.2210    1.0091 H         1 <0>         0.0573
     35 H8         -1.7522    0.8876   -0.9077 H         1 <0>         0.0591
     36 H9         -1.2141   -0.3727    0.2283 H         1 <0>         0.0577
     37 H10        -1.6602    1.2403    0.8346 H         1 <0>         0.0552
     38 H11        -0.8718   -0.7257   -1.7355 H         1 <0>         0.1239
     39 H12         0.1716   -1.9569   -3.5952 H         1 <0>         0.1211
     40 H13         3.8187    0.1573   -2.9487 H         1 <0>         0.1275
     41 H14         2.7728    1.3945   -1.0943 H         1 <0>         0.1190
     42 H15         1.2043   -2.9231   -5.4378 H         1 <0>         0.4025
     43 H16         5.0556   -3.0079   -6.0070 H         1 <0>         0.1310
     44 H17         7.4458   -3.4598   -5.6337 H         1 <0>         0.1321
     45 H18         7.8040    0.1914   -3.4543 H         1 <0>         0.1331
     46 H19         5.4170    0.6564   -3.8319 H         1 <0>         0.1483
@<TRIPOS>BOND
     1    1    2 1
     2    1   29 1
     3    1   30 1
     4    1   31 1
     5    2    3 1
     6    2    4 1
     7    2    5 1
     8    3   32 1
     9    3   33 1
    10    3   34 1
    11    4   35 1
    12    4   36 1
    13    4   37 1
    14    5   10 ar
    15    5    6 ar
    16    6    7 ar
    17    6   38 1
    18    7    8 ar
    19    7   39 1
    20    8    9 ar
    21    8   11 1
    22    9   10 ar
    23    9   40 1
    24   10   41 1
    25   11   12 1
    26   11   18 1
    27   11   13 1
    28   13   14 am
    29   13   42 1
    30   14   15 2
    31   14   16 1
    32   16   17 2
    33   16   27 1
    34   17   18 1
    35   17   26 1
    36   18   19 1
    37   19   24 ar
    38   19   20 ar
    39   20   21 ar
    40   20   43 1
    41   21   22 ar
    42   21   44 1
    43   22   23 ar
    44   22   25 1
    45   23   24 ar
    46   23   45 1
    47   24   46 1
    48   27   28 3
@<TRIPOS>MOLECULE
ZINC50980481
   37    38     0     0     0
SMALL
USER_CHARGES

@<TRIPOS>ATOM
      1 C1         -0.3710    2.5578   -0.0664 C.ar      1 <0>        -0.1064
      2 C2          0.9184    3.0570   -0.0708 C.ar      1 <0>        -0.1140
      3 C3          1.9952    2.1918   -0.0241 C.ar      1 <0>        -0.0561
      4 C4          1.7837    0.8266    0.0265 C.ar      1 <0>        -0.1097
      5 C5          0.4940    0.3265    0.0309 C.ar      1 <0>        -0.0317
      6 C6         -0.5837    1.1933   -0.0154 C.ar      1 <0>        -0.1241
      7 Cl1         0.2275   -1.3877    0.0939 Cl        1 <0>        -0.0789
      8 C7          3.4003    2.7367   -0.0290 C.3       1 <0>        -0.0690
      9 C8          3.8588    2.9777    1.4107 C.3       1 <0>        -0.1533
     10 C9          5.2638    3.5226    1.4058 C.2       1 <0>         0.4201
     11 C10         5.9062    3.8252    2.6228 C.2       1 <0>        -0.4448
     12 C11         5.2241    3.6149    3.8642 C.1       1 <0>         0.2951
     13 N1          4.6830    3.4481    4.8490 N.1       1 <0>        -0.5338
     14 C12         7.2097    4.3308    2.6183 C.2       1 <0>         0.5465
     15 O1          7.8509    4.5284    1.4514 O.3       1 <0>        -0.6135
     16 N2          7.8301    4.6230    3.7935 N.pl3     1 <0>        -0.6698
     17 C13         9.0821    5.2471    3.7872 C.ar      1 <0>         0.2067
     18 C14         9.4086    6.1417    2.7763 C.ar      1 <0>        -0.1050
     19 C15        10.6453    6.7567    2.7721 C.ar      1 <0>        -0.0848
     20 C16        11.5595    6.4827    3.7729 C.ar      1 <0>        -0.1366
     21 C17        11.2389    5.5918    4.7820 C.ar      1 <0>        -0.0106
     22 C18         9.9994    4.9776    4.7955 C.ar      1 <0>        -0.0834
     23 Cl2         9.5939    3.8657    6.0654 Cl        1 <0>        -0.0556
     24 Cl3        12.3901    5.2501    6.0356 Cl        1 <0>        -0.0626
     25 O2          5.8426    3.7011    0.3525 O.2       1 <0>        -0.4978
     26 H1         -1.2121    3.2345   -0.0983 H         1 <0>         0.1292
     27 H2          1.0842    4.1234   -0.1110 H         1 <0>         0.1294
     28 H3          2.6252    0.1506    0.0622 H         1 <0>         0.1332
     29 H4         -1.5909    0.8034   -0.0120 H         1 <0>         0.1284
     30 H5          4.0667    2.0189   -0.5072 H         1 <0>         0.0795
     31 H6          3.4234    3.6770   -0.5799 H         1 <0>         0.0808
     32 H7          3.1923    3.6955    1.8889 H         1 <0>         0.0775
     33 H8          3.8356    2.0374    1.9616 H         1 <0>         0.0772
     34 H9          7.4043    4.3986    4.6356 H         1 <0>         0.4054
     35 H10         8.6960    6.3562    1.9936 H         1 <0>         0.1597
     36 H11        10.8989    7.4523    1.9859 H         1 <0>         0.1371
     37 H12        12.5258    6.9649    3.7667 H         1 <0>         0.1357
@<TRIPOS>BOND
     1    1    6 ar
     2    1    2 ar
     3    1   26 1
     4    2    3 ar
     5    2   27 1
     6    3    4 ar
     7    3    8 1
     8    4    5 ar
     9    4   28 1
    10    5    6 ar
    11    5    7 1
    12    6   29 1
    13    8   30 1
    14    8   31 1
    15    8    9 1
    16    9   10 1
    17    9   32 1
    18    9   33 1
    19   10   11 1
    20   10   25 2
    21   11   12 1
    22   11   14 2
    23   12   13 3
    24   14   15 1
    25   14   16 1
    26   16   17 1
    27   16   34 1
    28   17   22 ar
    29   17   18 ar
    30   18   19 ar
    31   18   35 1
    32   19   20 ar
    33   19   36 1
    34   20   21 ar
    35   20   37 1
    36   21   22 ar
    37   21   24 1
    38   22   23 1
@<TRIPOS>MOLECULE
ZINC18119523
   32    34     0     0     0
SMALL
USER_CHARGES

@<TRIPOS>ATOM
      1 C1          1.1568   -0.4973    0.8433 C.ar      1 <0>        -0.0898
      2 C2          2.3465    0.1973    0.7396 C.ar      1 <0>        -0.1443
      3 C3          2.3801    1.4214    0.0847 C.ar      1 <0>         0.1835
      4 C4          1.2153    1.9444   -0.4648 C.ar      1 <0>        -0.0530
      5 C5          0.0277    1.2441   -0.3575 C.ar      1 <0>        -0.0144
      6 C6         -0.0007    0.0243    0.2962 C.ar      1 <0>        -0.1527
      7 Cl1        -1.4283    1.8951   -1.0430 Cl        1 <0>        -0.0739
      8 Cl2         1.2514    3.4745   -1.2841 Cl        1 <0>        -0.0591
      9 N1          3.5830    2.1266   -0.0212 N.2       1 <0>        -0.5547
     10 C7          4.7794    1.4600    0.0674 C.2       1 <0>         0.4502
     11 N2          4.9948    0.1544    0.0699 N.2       1 <0>        -0.7109
     12 C8          6.2021   -0.3606    0.1611 C.2       1 <0>         0.5267
     13 O1          6.3881   -1.5683    0.1620 O.2       1 <0>        -0.5311
     14 C9          7.3200    0.5979    0.2617 C.2       1 <0>        -0.1679
     15 C10         8.6744    0.3663    0.3679 C.2       1 <0>        -0.0433
     16 C11         9.5661    1.4459    0.4518 C.2       1 <0>        -0.0851
     17 C12        10.9045    1.2170    0.5567 C.2       1 <0>        -0.0956
     18 C13        11.8032    2.3050    0.6412 C.2       1 <0>         0.0261
     19 C14        13.1780    2.2193    0.7451 C.2       1 <0>        -0.1984
     20 C15        13.6568    3.5369    0.8003 C.2       1 <0>        -0.2137
     21 C16        12.5838    4.3559    0.7298 C.2       1 <0>        -0.0400
     22 O2         11.4719    3.6131    0.6289 O.3       1 <0>        -0.1672
     23 S1          6.4239    2.1444    0.1993 S.3       1 <0>        -0.1100
     24 H1          1.1319   -1.4514    1.3488 H         1 <0>         0.1254
     25 H2          3.2498   -0.2113    1.1678 H         1 <0>         0.1512
     26 H3         -0.9291   -0.5214    0.3787 H         1 <0>         0.1281
     27 H4          9.0492   -0.6464    0.3865 H         1 <0>         0.1427
     28 H5          9.1913    2.4586    0.4331 H         1 <0>         0.1226
     29 H6         11.2794    0.2043    0.5753 H         1 <0>         0.1484
     30 H7         13.7683    1.3155    0.7779 H         1 <0>         0.1507
     31 H8         14.6900    3.8402    0.8839 H         1 <0>         0.1480
     32 H9         12.6170    5.4352    0.7476 H         1 <0>         0.2015
@<TRIPOS>BOND
     1    1    6 ar
     2    1    2 ar
     3    1   24 1
     4    2    3 ar
     5    2   25 1
     6    3    4 ar
     7    3    9 1
     8    4    5 ar
     9    4    8 1
    10    5    6 ar
    11    5    7 1
    12    6   26 1
    13    9   10 1
    14   10   23 1
    15   10   11 2
    16   11   12 1
    17   12   13 2
    18   12   14 1
    19   14   15 2
    20   14   23 1
    21   15   16 1
    22   15   27 1
    23   16   17 2
    24   16   28 1
    25   17   18 1
    26   17   29 1
    27   18   22 1
    28   18   19 2
    29   19   20 1
    30   19   30 1
    31   20   21 2
    32   20   31 1
    33   21   22 1
    34   21   32 1
@<TRIPOS>MOLECULE
ZINC19313792
   53    56     0     0     0
SMALL
USER_CHARGES

@<TRIPOS>ATOM
      1 C1         -0.0943    1.5282    0.0609 C.3       1 <0>        -0.1489
      2 C2         -0.0542   -0.0011    0.0390 C.3       1 <0>         0.0586
      3 O1          0.6495   -0.4756    1.1887 O.3       1 <0>        -0.3313
      4 C3          0.7751   -1.8104    1.3211 C.2       1 <0>         0.4636
      5 C4          1.4427   -2.3359    2.4077 C.2       1 <0>        -0.3828
      6 C5          1.4616   -3.8216    2.6107 C.3       1 <0>         0.1389
      7 H1          0.4380   -4.1813    2.7147 H         1 <0>         0.0424
      8 C6          2.2435   -4.1908    3.8457 C.2       1 <0>        -0.3869
      9 C7          2.8260   -3.2274    4.6344 C.2       1 <0>         0.2477
     10 C8          3.5984   -3.6151    5.8744 C.3       1 <0>        -0.0641
     11 C9          4.2375   -4.9901    5.6714 C.3       1 <0>        -0.0402
     12 H2          4.9324   -4.9507    4.8326 H         1 <0>         0.0830
     13 C10         3.1277   -6.0033    5.3732 C.3       1 <0>        -0.1515
     14 C11         2.3594   -5.5468    4.1640 C.2       1 <0>         0.3938
     15 O2          1.8276   -6.3744    3.4484 O.2       1 <0>        -0.5125
     16 C12         4.9755   -5.3949    6.9215 C.ar      1 <0>        -0.0649
     17 C13         4.2920   -5.5251    8.1160 C.ar      1 <0>        -0.1133
     18 C14         4.9689   -5.8964    9.2627 C.ar      1 <0>        -0.1197
     19 C15         6.3292   -6.1379    9.2147 C.ar      1 <0>        -0.1299
     20 C16         7.0124   -6.0086    8.0200 C.ar      1 <0>        -0.1202
     21 C17         6.3348   -5.6414    6.8725 C.ar      1 <0>        -0.1153
     22 N1          2.7322   -1.9331    4.3391 N.2       1 <0>        -0.6391
     23 C18         2.0873   -1.4814    3.2864 C.2       1 <0>         0.2777
     24 C19         2.0432    0.0034    3.0329 C.3       1 <0>        -0.1001
     25 C20         2.0962   -4.4765    1.4110 C.ar      1 <0>        -0.0034
     26 C21         3.3990   -4.1700    1.0648 C.ar      1 <0>        -0.1028
     27 C22         3.9815   -4.7703   -0.0354 C.ar      1 <0>        -0.1225
     28 C23         3.2606   -5.6783   -0.7903 C.ar      1 <0>        -0.0519
     29 C24         1.9568   -5.9847   -0.4434 C.ar      1 <0>        -0.1182
     30 C25         1.3772   -5.3879    0.6603 C.ar      1 <0>        -0.0617
     31 Cl1         3.9914   -6.4323   -2.1727 Cl        1 <0>        -0.1033
     32 O3          0.2485   -2.6321    0.3923 O.3       1 <0>        -0.6344
     33 H3          0.9233    1.9185    0.0507 H         1 <0>         0.0615
     34 H4         -0.6311    1.8901   -0.8161 H         1 <0>         0.0687
     35 H5         -0.6039    1.8654    0.9635 H         1 <0>         0.0614
     36 H6         -1.0718   -0.3915    0.0491 H         1 <0>         0.0576
     37 H7          0.4553   -0.3384   -0.8636 H         1 <0>         0.0578
     38 H8          4.3779   -2.8767    6.0622 H         1 <0>         0.0818
     39 H9          2.9208   -3.6522    6.7274 H         1 <0>         0.0795
     40 H10         3.5692   -6.9804    5.1770 H         1 <0>         0.0801
     41 H11         2.4557   -6.0704    6.2287 H         1 <0>         0.0860
     42 H12         3.2293   -5.3364    8.1535 H         1 <0>         0.1225
     43 H13         4.4351   -5.9975   10.1961 H         1 <0>         0.1189
     44 H14         6.8581   -6.4273   10.1107 H         1 <0>         0.1169
     45 H15         8.0752   -6.1969    7.9826 H         1 <0>         0.1185
     46 H16         6.8679   -5.5440    5.9383 H         1 <0>         0.1213
     47 H17         1.0144    0.3549    3.1108 H         1 <0>         0.0777
     48 H18         2.6593    0.5165    3.7713 H         1 <0>         0.0600
     49 H19         2.4240    0.2128    2.0333 H         1 <0>         0.0759
     50 H20         3.9616   -3.4609    1.6540 H         1 <0>         0.1151
     51 H21         4.9992   -4.5305   -0.3059 H         1 <0>         0.1170
     52 H22         1.3934   -6.6931   -1.0326 H         1 <0>         0.1177
     53 H23         0.3610   -5.6306    0.9341 H         1 <0>         0.1174
@<TRIPOS>BOND
     1    1    2 1
     2    1   33 1
     3    1   34 1
     4    1   35 1
     5    2    3 1
     6    2   36 1
     7    2   37 1
     8    3    4 1
     9    4    5 2
    10    4   32 1
    11    5   23 1
    12    5    6 1
    13    6    7 1
    14    6    8 1
    15    6   25 1
    16    8   14 1
    17    8    9 2
    18    9   10 1
    19    9   22 1
    20   10   11 1
    21   10   38 1
    22   10   39 1
    23   11   12 1
    24   11   13 1
    25   11   16 1
    26   13   14 1
    27   13   40 1
    28   13   41 1
    29   14   15 2
    30   16   21 ar
    31   16   17 ar
    32   17   18 ar
    33   17   42 1
    34   18   19 ar
    35   18   43 1
    36   19   20 ar
    37   19   44 1
    38   20   21 ar
    39   20   45 1
    40   21   46 1
    41   22   23 2
    42   23   24 1
    43   24   47 1
    44   24   48 1
    45   24   49 1
    46   25   30 ar
    47   25   26 ar
    48   26   27 ar
    49   26   50 1
    50   27   28 ar
    51   27   51 1
    52   28   29 ar
    53   28   31 1
    54   29   30 ar
    55   29   52 1
    56   30   53 1
@<TRIPOS>MOLECULE
ZINC01228648
   41    43     0     0     0
SMALL
USER_CHARGES
2-[4-(2,2-dimethylpropyl)phenyl]indane-1,3-dione
@<TRIPOS>ATOM
      1 C1          4.6522    2.9368    5.3885 C.3       1 <0>        -0.1450
      2 C2          5.9556    2.1935    5.0896 C.3       1 <0>        -0.0627
      3 C3          6.8425    2.1976    6.3364 C.3       1 <0>        -0.1403
      4 C4          6.6878    2.8897    3.9407 C.3       1 <0>        -0.1450
      5 C5          5.6401    0.7499    4.6930 C.3       1 <0>        -0.0619
      6 C6          4.7666    0.7459    3.4650 C.ar      1 <0>        -0.1111
      7 C7          5.3414    0.7215    2.2080 C.ar      1 <0>        -0.1230
      8 C8          4.5401    0.7168    1.0816 C.ar      1 <0>        -0.1032
      9 C9          3.1641    0.7362    1.2121 C.ar      1 <0>         0.0483
     10 C10         2.5894    0.7659    2.4690 C.ar      1 <0>        -0.1485
     11 C11         3.3906    0.7661    3.5955 C.ar      1 <0>        -0.1178
     12 C12         2.2905    0.7311   -0.0159 C.2       1 <0>        -0.5140
     13 C13         1.3625    1.9224   -0.0006 C.2       1 <0>         0.4094
     14 O1          1.6914    3.0893    0.0025 O.3       1 <0>        -0.5098
     15 C14        -0.0170    1.4037    0.0098 C.ar      1 <0>        -0.1332
     16 C15        -1.2423    2.0745    0.0303 C.ar      1 <0>        -0.0920
     17 C16        -2.4241    1.3589    0.0333 C.ar      1 <0>        -0.1242
     18 C17        -2.4053   -0.0249    0.0257 C.ar      1 <0>        -0.1242
     19 C18        -1.2046   -0.7080    0.0102 C.ar      1 <0>        -0.0919
     20 C19         0.0021   -0.0041    0.0020 C.ar      1 <0>        -0.1329
     21 C20         1.3952   -0.4851   -0.0139 C.2       1 <0>         0.4097
     22 O2          1.7556   -1.6426   -0.0229 O.2       1 <0>        -0.5101
     23 H1          4.0146    2.9338    4.4921 H         1 <0>         0.0667
     24 H2          4.8791    3.9747    5.6737 H         1 <0>         0.0477
     25 H3          4.1258    2.4363    6.2146 H         1 <0>         0.0488
     26 H4          7.7796    1.6632    6.1215 H         1 <0>         0.0524
     27 H5          6.3161    1.6971    7.1625 H         1 <0>         0.0514
     28 H6          7.0694    3.2355    6.6216 H         1 <0>         0.0518
     29 H7          7.6249    2.3553    3.7258 H         1 <0>         0.0504
     30 H8          6.9147    3.9276    4.2260 H         1 <0>         0.0474
     31 H9          6.0502    2.8868    3.0443 H         1 <0>         0.0682
     32 H10         6.5773    0.2155    4.4781 H         1 <0>         0.0642
     33 H11         5.1137    0.2494    5.5191 H         1 <0>         0.0620
     34 H12         6.4164    0.7056    2.1060 H         1 <0>         0.1077
     35 H13         4.9892    0.6978    0.0995 H         1 <0>         0.1208
     36 H14         1.5144    0.7854    2.5709 H         1 <0>         0.0967
     37 H15         2.9415    0.7849    4.5775 H         1 <0>         0.1034
     38 H16        -1.2659    3.1542    0.0367 H         1 <0>         0.1214
     39 H17        -3.3685    1.8826    0.0451 H         1 <0>         0.1204
     40 H18        -3.3352   -0.5742    0.0316 H         1 <0>         0.1204
     41 H19        -1.1988   -1.7880    0.0047 H         1 <0>         0.1214
@<TRIPOS>BOND
     1    1    2 1
     2    1   23 1
     3    1   24 1
     4    1   25 1
     5    2    3 1
     6    2    4 1
     7    2    5 1
     8    3   26 1
     9    3   27 1
    10    3   28 1
    11    4   29 1
    12    4   30 1
    13    4   31 1
    14    5    6 1
    15    5   32 1
    16    5   33 1
    17    6   11 ar
    18    6    7 ar
    19    7    8 ar
    20    7   34 1
    21    8    9 ar
    22    8   35 1
    23    9   10 ar
    24    9   12 1
    25   10   11 ar
    26   10   36 1
    27   11   37 1
    28   12   21 1
    29   12   13 2
    30   13   14 1
    31   13   15 1
    32   15   20 ar
    33   15   16 ar
    34   16   17 ar
    35   16   38 1
    36   17   18 ar
    37   17   39 1
    38   18   19 ar
    39   18   40 1
    40   19   20 ar
    41   19   41 1
    42   20   21 1
    43   21   22 2
@<TRIPOS>MOLECULE
ZINC15016093
   41    43     0     0     0
SMALL
USER_CHARGES

@<TRIPOS>ATOM
      1 C1         -1.7774    1.1976    1.1610 C.3       1 <0>        -0.1533
      2 C2         -1.4277   -0.2736    0.9284 C.3       1 <0>         0.0543
      3 O1         -0.4150   -0.6745    1.8536 O.3       1 <0>        -0.3082
      4 C3          0.0118   -1.9606    1.7807 C.ar      1 <0>         0.1468
      5 C4         -0.5260   -2.8202    0.8363 C.ar      1 <0>        -0.2152
      6 C5         -0.0908   -4.1294    0.7630 C.ar      1 <0>        -0.0776
      7 C6          0.8848   -4.5949    1.6302 C.ar      1 <0>        -0.1533
      8 C7          1.4320   -3.7563    2.5760 C.ar      1 <0>        -0.0685
      9 C8          1.0051   -2.4255    2.6586 C.ar      1 <0>        -0.0902
     10 C9          1.5873   -1.5237    3.6594 C.2       1 <0>        -0.0040
     11 C10         2.2859   -2.0321    4.7064 C.2       1 <0>        -0.1926
     12 C11         3.0704   -1.3349    5.7520 C.2       1 <0>         0.5317
     13 O2          3.1745   -0.1188    5.7754 O.2       1 <0>        -0.5359
     14 N1          3.6481   -2.0979    6.6535 N.2       1 <0>        -0.7101
     15 C12         3.5429   -3.4172    6.6399 C.2       1 <0>         0.4396
     16 S1          2.5116   -3.7315    5.2160 S.3       1 <0>        -0.1179
     17 N2          4.0892   -4.3235    7.5116 N.2       1 <0>        -0.5701
     18 C13         4.5524   -3.9001    8.7608 C.ar      1 <0>         0.1796
     19 C14         4.0938   -2.7070    9.3054 C.ar      1 <0>        -0.1537
     20 C15         4.5525   -2.2913   10.5398 C.ar      1 <0>        -0.0979
     21 C16         5.4677   -3.0609   11.2344 C.ar      1 <0>        -0.1622
     22 C17         5.9268   -4.2499   10.6954 C.ar      1 <0>        -0.0186
     23 C18         5.4673   -4.6739    9.4625 C.ar      1 <0>        -0.1058
     24 C19         5.9626   -5.9718    8.8783 C.3       1 <0>        -0.0955
     25 Cl1         7.0756   -5.2128   11.5710 Cl        1 <0>        -0.0937
     26 H1         -0.8879    1.8101    1.0140 H         1 <0>         0.0675
     27 H2         -2.5498    1.5033    0.4554 H         1 <0>         0.0763
     28 H3         -2.1437    1.3273    2.1794 H         1 <0>         0.0676
     29 H4         -2.3172   -0.8862    1.0754 H         1 <0>         0.0612
     30 H5         -1.0614   -0.4034   -0.0899 H         1 <0>         0.0611
     31 H6         -1.2869   -2.4663    0.1566 H         1 <0>         0.1270
     32 H7         -0.5140   -4.7947    0.0250 H         1 <0>         0.1233
     33 H8          1.2174   -5.6203    1.5643 H         1 <0>         0.1265
     34 H9          2.1917   -4.1237    3.2500 H         1 <0>         0.1502
     35 H10         1.4599   -0.4556    3.5630 H         1 <0>         0.1480
     36 H11         3.3794   -2.1049    8.7636 H         1 <0>         0.1388
     37 H12         4.1964   -1.3637   10.9630 H         1 <0>         0.1171
     38 H13         5.8251   -2.7332   12.1995 H         1 <0>         0.1177
     39 H14         6.8551   -5.7844    8.2812 H         1 <0>         0.0581
     40 H15         6.2037   -6.6646    9.6846 H         1 <0>         0.0557
     41 H16         5.1873   -6.4053    8.2466 H         1 <0>         0.0761
@<TRIPOS>BOND
     1    1    2 1
     2    1   26 1
     3    1   27 1
     4    1   28 1
     5    2    3 1
     6    2   29 1
     7    2   30 1
     8    3    4 1
     9    4    9 ar
    10    4    5 ar
    11    5    6 ar
    12    5   31 1
    13    6    7 ar
    14    6   32 1
    15    7    8 ar
    16    7   33 1
    17    8    9 ar
    18    8   34 1
    19    9   10 1
    20   10   11 2
    21   10   35 1
    22   11   16 1
    23   11   12 1
    24   12   13 2
    25   12   14 1
    26   14   15 2
    27   15   16 1
    28   15   17 1
    29   17   18 1
    30   18   23 ar
    31   18   19 ar
    32   19   20 ar
    33   19   36 1
    34   20   21 ar
    35   20   37 1
    36   21   22 ar
    37   21   38 1
    38   22   23 ar
    39   22   25 1
    40   23   24 1
    41   24   39 1
    42   24   40 1
    43   24   41 1
@<TRIPOS>MOLECULE
ZINC37373129
   31    33     0     0     0
SMALL
USER_CHARGES

@<TRIPOS>ATOM
      1 C1          0.0017    1.3021   -0.6125 C.ar      1 <0>        -0.1050
      2 C2          1.1872    2.0298   -0.6665 C.ar      1 <0>        -0.1395
      3 C3          2.3939    1.4246   -0.4690 C.ar      1 <0>        -0.0843
      4 C4          2.4436    0.0508   -0.2078 C.ar      1 <0>        -0.1373
      5 C5          1.2363   -0.6909   -0.1527 C.ar      1 <0>         0.0002
      6 C6          0.0128   -0.0379   -0.3603 C.ar      1 <0>        -0.1104
      7 C7          1.3103   -2.0711    0.1119 C.ar      1 <0>        -0.1755
      8 C8          2.5547   -2.6444    0.3065 C.ar      1 <0>         0.1097
      9 N1          3.6762   -1.9177    0.2482 N.ar      1 <0>        -0.4873
     10 C9          3.6697   -0.6251    0.0048 C.ar      1 <0>         0.3916
     11 N2          4.8636    0.0758   -0.0441 N.pl3     1 <0>        -0.6608
     12 C10         6.0793   -0.6077    0.0465 C.ar      1 <0>         0.1758
     13 C11         6.2260   -1.8505   -0.5572 C.ar      1 <0>        -0.0779
     14 C12         7.4284   -2.5233   -0.4658 C.ar      1 <0>        -0.0886
     15 C13         8.4861   -1.9619    0.2260 C.ar      1 <0>        -0.1094
     16 C14         8.3436   -0.7250    0.8287 C.ar      1 <0>        -0.0816
     17 C15         7.1451   -0.0435    0.7354 C.ar      1 <0>        -0.1257
     18 I1          9.9490    0.1198    1.8765 I         1 <0>        -0.0572
     19 C16         2.6465   -4.0913    0.5854 C.2       1 <0>         0.5316
     20 O1          1.6299   -4.7688    0.6422 O.co2     1 <0>        -0.6799
     21 O2          3.7391   -4.6123    0.7596 O.co2     1 <0>        -0.6568
     22 H1         -0.9404    1.8067   -0.7681 H         1 <0>         0.1211
     23 H2          1.1512    3.0901   -0.8682 H         1 <0>         0.1197
     24 H3          3.3052    2.0023   -0.5143 H         1 <0>         0.1181
     25 H4         -0.9134   -0.5919   -0.3205 H         1 <0>         0.1301
     26 H5          0.4136   -2.6709    0.1624 H         1 <0>         0.1440
     27 H6          4.8558    1.0409   -0.1412 H         1 <0>         0.4125
     28 H7          5.4003   -2.2900   -1.0970 H         1 <0>         0.1400
     29 H8          7.5428   -3.4894   -0.9349 H         1 <0>         0.1331
     30 H9          9.4253   -2.4904    0.2962 H         1 <0>         0.1250
     31 H10         7.0359    0.9245    1.2017 H         1 <0>         0.1249
@<TRIPOS>BOND
     1    1    6 ar
     2    1    2 ar
     3    1   22 1
     4    2    3 ar
     5    2   23 1
     6    3    4 ar
     7    3   24 1
     8    4   10 ar
     9    4    5 ar
    10    5    6 ar
    11    5    7 ar
    12    6   25 1
    13    7    8 ar
    14    7   26 1
    15    8    9 ar
    16    8   19 1
    17    9   10 ar
    18   10   11 1
    19   11   12 1
    20   11   27 1
    21   12   17 ar
    22   12   13 ar
    23   13   14 ar
    24   13   28 1
    25   14   15 ar
    26   14   29 1
    27   15   16 ar
    28   15   30 1
    29   16   17 ar
    30   16   18 1
    31   17   31 1
    32   19   20 2
    33   19   21 1
@<TRIPOS>MOLECULE
ZINC41500041
   32    33     0     0     0
SMALL
USER_CHARGES

@<TRIPOS>ATOM
      1 C1         -0.0187    1.5258    0.0104 C.3       1 <0>        -0.1448
      2 C2          0.0021   -0.0041    0.0020 C.3       1 <0>        -0.0566
      3 C3         -1.4333   -0.5336    0.0129 C.3       1 <0>        -0.1447
      4 C4          0.7074   -0.4901   -1.2379 C.ar      1 <0>        -0.0695
      5 C5          0.2194   -0.1494   -2.4865 C.ar      1 <0>        -0.1227
      6 C6          0.8609   -0.5919   -3.6254 C.ar      1 <0>        -0.0673
      7 C7          2.0031   -1.3833   -3.5157 C.ar      1 <0>        -0.0470
      8 C8          2.4906   -1.7231   -2.2549 C.ar      1 <0>        -0.0918
      9 C9          1.8438   -1.2705   -1.1229 C.ar      1 <0>        -0.1258
     10 C10         2.6967   -1.8624   -4.7359 C.ar      1 <0>         0.2243
     11 C11         3.8422   -2.6561   -4.6352 C.ar      1 <0>        -0.2469
     12 C12         4.4554   -3.0801   -5.8012 C.ar      1 <0>         0.1003
     13 N1          3.9432   -2.7245   -6.9683 N.ar      1 <0>        -0.4970
     14 C13         2.8546   -1.9702   -7.0344 C.ar      1 <0>         0.4775
     15 N2          2.2342   -1.5474   -5.9437 N.ar      1 <0>        -0.5032
     16 S1          2.2136   -1.5243   -8.6140 S.3       1 <0>        -0.7678
     17 C14         5.6934   -3.9373   -5.7423 C.3       1 <0>         0.5246
     18 F1          5.3257   -5.2870   -5.7245 F         1 <0>        -0.1733
     19 F2          6.4889   -3.6854   -6.8652 F         1 <0>        -0.1634
     20 F3          6.4150   -3.6352   -4.5824 F         1 <0>        -0.1752
     21 H1          1.0039    1.9031    0.0027 H         1 <0>         0.0561
     22 H2         -0.5459    1.8868   -0.8726 H         1 <0>         0.0581
     23 H3         -0.5289    1.8773    0.9072 H         1 <0>         0.0557
     24 H4          0.5293   -0.3651    0.8851 H         1 <0>         0.0761
     25 H5         -1.9605   -0.1726   -0.8702 H         1 <0>         0.0581
     26 H6         -1.4185   -1.6235    0.0069 H         1 <0>         0.0561
     27 H7         -1.9435   -0.1821    0.9097 H         1 <0>         0.0558
     28 H8         -0.6657    0.4639   -2.5703 H         1 <0>         0.1232
     29 H9          0.4786   -0.3259   -4.5998 H         1 <0>         0.1394
     30 H10         3.3752   -2.3360   -2.1641 H         1 <0>         0.1275
     31 H11         2.2230   -1.5298   -0.1455 H         1 <0>         0.1229
     32 H12         4.2401   -2.9320   -3.6698 H         1 <0>         0.1412
@<TRIPOS>BOND
     1    1    2 1
     2    1   21 1
     3    1   22 1
     4    1   23 1
     5    2    3 1
     6    2    4 1
     7    2   24 1
     8    3   25 1
     9    3   26 1
    10    3   27 1
    11    4    9 ar
    12    4    5 ar
    13    5    6 ar
    14    5   28 1
    15    6    7 ar
    16    6   29 1
    17    7    8 ar
    18    7   10 1
    19    8    9 ar
    20    8   30 1
    21    9   31 1
    22   10   11 ar
    23   10   15 ar
    24   11   12 ar
    25   11   32 1
    26   12   13 ar
    27   12   17 1
    28   13   14 ar
    29   14   16 1
    30   14   15 ar
    31   17   18 1
    32   17   19 1
    33   17   20 1
@<TRIPOS>MOLECULE
ZINC20509805
   37    40     0     0     0
SMALL
USER_CHARGES

@<TRIPOS>ATOM
      1 C1         -0.3067    0.8706    0.2326 C.ar      1 <0>        -0.1468
      2 C2          0.8329    1.6552    0.2278 C.ar      1 <0>        -0.1229
      3 C3          2.0796    1.0658    0.1900 C.ar      1 <0>        -0.1132
      4 C4          2.1898   -0.3252    0.1567 C.ar      1 <0>         0.0866
      5 C5          1.0362   -1.1109    0.1618 C.ar      1 <0>        -0.1172
      6 C6         -0.2045   -0.5089    0.1997 C.ar      1 <0>        -0.1124
      7 C7          3.5234   -0.9640    0.1156 C.2       1 <0>        -0.4365
      8 C8          4.0804   -1.7252   -1.0184 C.2       1 <0>         0.3199
      9 N1          3.4925   -1.9611   -2.1676 N.2       1 <0>        -0.5603
     10 C9          2.3034   -1.3656   -2.4588 C.ar      1 <0>         0.1545
     11 C10         2.2190    0.0286   -2.5537 C.ar      1 <0>        -0.1379
     12 C11         1.0112    0.6235   -2.8489 C.ar      1 <0>        -0.0899
     13 C12        -0.1165   -0.1536   -3.0514 C.ar      1 <0>        -0.1490
     14 C13        -0.0419   -1.5329   -2.9589 C.ar      1 <0>        -0.1029
     15 C14         1.1595   -2.1443   -2.6707 C.ar      1 <0>        -0.1433
     16 C15         5.4339   -2.1723   -0.6080 C.ar      1 <0>        -0.0569
     17 C16         6.4191   -2.9122   -1.2436 C.ar      1 <0>        -0.0822
     18 C17         7.6118   -3.1775   -0.5904 C.ar      1 <0>        -0.1292
     19 C18         7.8248   -2.7085    0.6930 C.ar      1 <0>        -0.1201
     20 C19         6.8521   -1.9689    1.3412 C.ar      1 <0>        -0.0891
     21 C20         5.6466   -1.6921    0.6993 C.ar      1 <0>        -0.0808
     22 C21         4.4484   -0.9438    1.1176 C.2       1 <0>         0.3399
     23 O1          4.2886   -0.3317    2.3157 O.3       1 <0>        -0.6538
     24 H1         -1.2803    1.3369    0.2668 H         1 <0>         0.1019
     25 H2          0.7463    2.7314    0.2532 H         1 <0>         0.1033
     26 H3          2.9685    1.6793    0.1859 H         1 <0>         0.1050
     27 H4          1.1146   -2.1877    0.1357 H         1 <0>         0.1012
     28 H5         -1.0979   -1.1157    0.2040 H         1 <0>         0.1019
     29 H6          3.0977    0.6363   -2.3957 H         1 <0>         0.1088
     30 H7          0.9442    1.6990   -2.9221 H         1 <0>         0.1069
     31 H8         -1.0598    0.3188   -3.2823 H         1 <0>         0.1056
     32 H9         -0.9265   -2.1319   -3.1176 H         1 <0>         0.1081
     33 H10         1.2171   -3.2207   -2.6041 H         1 <0>         0.1095
     34 H11         6.2571   -3.2812   -2.2456 H         1 <0>         0.1246
     35 H12         8.3790   -3.7539   -1.0859 H         1 <0>         0.1214
     36 H13         8.7579   -2.9217    1.1933 H         1 <0>         0.1206
     37 H14         7.0269   -1.6062    2.3434 H         1 <0>         0.1245
@<TRIPOS>BOND
     1    1    6 ar
     2    1    2 ar
     3    1   24 1
     4    2    3 ar
     5    2   25 1
     6    3    4 ar
     7    3   26 1
     8    4    5 ar
     9    4    7 1
    10    5    6 ar
    11    5   27 1
    12    6   28 1
    13    7   22 2
    14    7    8 1
    15    8   16 1
    16    8    9 2
    17    9   10 1
    18   10   15 ar
    19   10   11 ar
    20   11   12 ar
    21   11   29 1
    22   12   13 ar
    23   12   30 1
    24   13   14 ar
    25   13   31 1
    26   14   15 ar
    27   14   32 1
    28   15   33 1
    29   16   21 ar
    30   16   17 ar
    31   17   18 ar
    32   17   34 1
    33   18   19 ar
    34   18   35 1
    35   19   20 ar
    36   19   36 1
    37   20   21 ar
    38   20   37 1
    39   21   22 1
    40   22   23 1
@<TRIPOS>MOLECULE
ZINC13788564
   36    38     0     0     0
SMALL
USER_CHARGES

@<TRIPOS>ATOM
      1 C1         -1.1846    1.3691    0.0406 C.3       1 <0>        -0.1051
      2 C2         -0.8741   -0.1054    0.0233 C.ar      1 <0>        -0.1122
      3 C3          0.0149   -0.6124   -0.9068 C.ar      1 <0>        -0.1198
      4 C4          0.3019   -1.9632   -0.9251 C.ar      1 <0>        -0.1484
      5 C5         -0.3034   -2.8127   -0.0080 C.ar      1 <0>         0.1681
      6 C6         -1.1958   -2.3003    0.9249 C.ar      1 <0>        -0.0726
      7 C7         -1.4744   -0.9477    0.9411 C.ar      1 <0>        -0.1156
      8 N1         -0.0153   -4.1809   -0.0240 N.pl3     1 <0>        -0.6600
      9 C8          0.1334   -4.8657    1.1580 C.2       1 <0>         0.5674
     10 N2          0.2954   -6.1712    1.1461 N.2       1 <0>        -0.6423
     11 C9          0.3110   -6.8674    2.3193 C.ar      1 <0>         0.2139
     12 C10        -0.7208   -6.7297    3.2397 C.ar      1 <0>        -0.1387
     13 C11        -0.7019   -7.4390    4.4327 C.ar      1 <0>        -0.0748
     14 C12         0.3144   -8.2883    4.7474 C.ar      1 <0>        -0.1736
     15 C13         1.3902   -8.4770    3.8639 C.ar      1 <0>        -0.0314
     16 C14         1.4102   -7.7784    2.6318 C.ar      1 <0>        -0.0637
     17 C15         2.4781   -7.9675    1.7464 C.ar      1 <0>        -0.0682
     18 C16         3.4834   -8.8265    2.0773 C.ar      1 <0>        -0.1559
     19 C17         3.4638   -9.5197    3.2853 C.ar      1 <0>        -0.1214
     20 C18         2.4468   -9.3503    4.1747 C.ar      1 <0>        -0.1235
     21 S1          0.1072   -3.9952    2.6898 S.3       1 <0>        -0.8778
     22 H1         -0.4810    1.8809    0.6972 H         1 <0>         0.0624
     23 H2         -1.0973    1.7707   -0.9690 H         1 <0>         0.0579
     24 H3         -2.2000    1.5224    0.4060 H         1 <0>         0.0597
     25 H4          0.4849    0.0486   -1.6199 H         1 <0>         0.1136
     26 H5          0.9960   -2.3585   -1.6520 H         1 <0>         0.1139
     27 H6         -1.6684   -2.9582    1.6391 H         1 <0>         0.1459
     28 H7         -2.1649   -0.5479    1.6691 H         1 <0>         0.1148
     29 H8          0.0796   -4.6467   -0.8696 H         1 <0>         0.3970
     30 H9         -1.5443   -6.0648    3.0252 H         1 <0>         0.1160
     31 H10        -1.5162   -7.3134    5.1310 H         1 <0>         0.1064
     32 H11         0.2936   -8.8221    5.6860 H         1 <0>         0.1095
     33 H12         2.5049   -7.4363    0.8065 H         1 <0>         0.1209
     34 H13         4.3065   -8.9718    1.3933 H         1 <0>         0.1108
     35 H14         4.2721  -10.1949    3.5242 H         1 <0>         0.1105
     36 H15         2.4453   -9.8941    5.1079 H         1 <0>         0.1164
@<TRIPOS>BOND
     1    1    2 1
     2    1   22 1
     3    1   23 1
     4    1   24 1
     5    2    7 ar
     6    2    3 ar
     7    3    4 ar
     8    3   25 1
     9    4    5 ar
    10    4   26 1
    11    5    6 ar
    12    5    8 1
    13    6    7 ar
    14    6   27 1
    15    7   28 1
    16    8    9 1
    17    8   29 1
    18    9   10 2
    19    9   21 1
    20   10   11 1
    21   11   16 ar
    22   11   12 ar
    23   12   13 ar
    24   12   30 1
    25   13   14 ar
    26   13   31 1
    27   14   15 ar
    28   14   32 1
    29   15   20 ar
    30   15   16 ar
    31   16   17 ar
    32   17   18 ar
    33   17   33 1
    34   18   19 ar
    35   18   34 1
    36   19   20 ar
    37   19   35 1
    38   20   36 1
@<TRIPOS>MOLECULE
ZINC16853448
   59    62     0     0     0
SMALL
USER_CHARGES
5-[(2,4-dimethylphenyl)methyl]-2-[(4-methoxy-3-nitro-phenyl)methylsulfanyl]-6-phenyl-3H-pyrimidin-4-one
@<TRIPOS>ATOM
      1 C1         -6.3494   -0.0656    6.3918 C.3       1 <0>        -0.1084
      2 C2         -6.2089   -0.2595    4.9039 C.ar      1 <0>        -0.1027
      3 C3         -6.0335   -1.5293    4.3858 C.ar      1 <0>        -0.1319
      4 C4         -5.9046   -1.7072    3.0212 C.ar      1 <0>        -0.1013
      5 C5         -5.9512   -0.6153    2.1744 C.ar      1 <0>        -0.0616
      6 C6         -6.1214    0.6545    2.6927 C.ar      1 <0>        -0.0829
      7 C7         -6.2559    0.8319    4.0573 C.ar      1 <0>        -0.1303
      8 C8         -6.1658    1.8453    1.7701 C.3       1 <0>        -0.1287
      9 C9         -5.8102   -0.8093    0.6866 C.3       1 <0>        -0.0144
     10 C10        -4.4232   -1.3088    0.3742 C.ar      1 <0>        -0.3062
     11 C11        -3.4238   -0.4269   -0.0109 C.ar      1 <0>         0.2044
     12 N1         -2.1974   -0.8909   -0.2842 N.ar      1 <0>        -0.6108
     13 C12        -1.9183   -2.1748   -0.1946 C.ar      1 <0>         0.3321
     14 N2         -2.8647   -3.0826    0.1740 N.ar      1 <0>        -0.6322
     15 C13        -4.1172   -2.6747    0.4671 C.ar      1 <0>         0.5054
     16 O1         -4.9700   -3.4805    0.8030 O.3       1 <0>        -0.6082
     17 S1         -0.2863   -2.7301   -0.5592 S.3       1 <0>        -0.0369
     18 C14         0.4961   -1.1527   -0.9784 C.3       1 <0>        -0.0627
     19 C15         1.9412   -1.3879   -1.3352 C.ar      1 <0>        -0.0996
     20 C16         2.9120   -1.3378   -0.3518 C.ar      1 <0>        -0.0100
     21 C17         4.2366   -1.5587   -0.6753 C.ar      1 <0>        -0.2117
     22 C18         4.5940   -1.8198   -1.9903 C.ar      1 <0>         0.1923
     23 C19         3.6190   -1.8638   -2.9759 C.ar      1 <0>        -0.0793
     24 C20         2.2948   -1.6478   -2.6462 C.ar      1 <0>        -0.0041
     25 N3          3.9968   -2.1425   -4.3796 N.pl3     1 <0>         0.0381
     26 O2          3.1402   -2.1814   -5.2445 O.2       1 <0>        -0.1765
     27 O3          5.1643   -2.3328   -4.6697 O.3       1 <0>        -0.1439
     28 O4          5.8973   -2.0313   -2.3122 O.3       1 <0>        -0.2831
     29 C21         6.8470   -1.9709   -1.2461 C.3       1 <0>         0.0155
     30 C22        -3.7120    1.0226   -0.1194 C.ar      1 <0>        -0.0013
     31 C23        -4.6909    1.4774   -1.0023 C.ar      1 <0>        -0.1052
     32 C24        -4.9595    2.8278   -1.0942 C.ar      1 <0>        -0.1213
     33 C25        -4.2510    3.7309   -0.3218 C.ar      1 <0>        -0.1267
     34 C26        -3.2746    3.2861    0.5514 C.ar      1 <0>        -0.1228
     35 C27        -3.0017    1.9377    0.6568 C.ar      1 <0>        -0.0938
     36 H1         -6.2870   -1.0411    6.8962 H         1 <0>         0.0601
     37 H2         -7.3221    0.3989    6.6108 H         1 <0>         0.0622
     38 H3         -5.5415    0.5870    6.7544 H         1 <0>         0.0621
     39 H4         -5.9967   -2.3822    5.0474 H         1 <0>         0.1123
     40 H5         -5.7671   -2.6990    2.6166 H         1 <0>         0.1432
     41 H6         -6.3933    1.8237    4.4619 H         1 <0>         0.1111
     42 H7         -6.3065    2.7622    2.3613 H         1 <0>         0.0526
     43 H8         -7.0025    1.7318    1.0650 H         1 <0>         0.0615
     44 H9         -5.2211    1.9111    1.2105 H         1 <0>         0.0914
     45 H10        -6.5514   -1.5449    0.3409 H         1 <0>         0.0713
     46 H11        -5.9787    0.1494    0.1742 H         1 <0>         0.0712
     47 H12         0.4375   -0.4735   -0.1151 H         1 <0>         0.1074
     48 H13        -0.0246   -0.7015   -1.8359 H         1 <0>         0.1069
     49 H14         2.6339   -1.1300    0.6709 H         1 <0>         0.1495
     50 H15         4.9940   -1.5235    0.0939 H         1 <0>         0.1527
     51 H16         1.5353   -1.6816   -3.4133 H         1 <0>         0.1627
     52 H17         7.8557   -2.1590   -1.6425 H         1 <0>         0.1117
     53 H18         6.6011   -2.7335   -0.4924 H         1 <0>         0.0638
     54 H19         6.8151   -0.9738   -0.7827 H         1 <0>         0.0628
     55 H20        -5.2412    0.7738   -1.6094 H         1 <0>         0.1221
     56 H21        -5.7207    3.1809   -1.7741 H         1 <0>         0.1199
     57 H22        -4.4614    4.7873   -0.4007 H         1 <0>         0.1167
     58 H23        -2.7250    3.9957    1.1521 H         1 <0>         0.1179
     59 H24        -2.2396    1.5916    1.3394 H         1 <0>         0.1182
@<TRIPOS>BOND
     1    1    2 1
     2    1   36 1
     3    1   37 1
     4    1   38 1
     5    2    7 ar
     6    2    3 ar
     7    3    4 ar
     8    3   39 1
     9    4    5 ar
    10    4   40 1
    11    5    6 ar
    12    5    9 1
    13    6    7 ar
    14    6    8 1
    15    7   41 1
    16    8   42 1
    17    8   43 1
    18    8   44 1
    19    9   45 1
    20    9   46 1
    21    9   10 1
    22   10   15 ar
    23   10   11 ar
    24   11   12 ar
    25   11   30 1
    26   12   13 ar
    27   13   17 1
    28   13   14 ar
    29   14   15 ar
    30   15   16 1
    31   17   18 1
    32   18   19 1
    33   18   47 1
    34   18   48 1
    35   19   24 ar
    36   19   20 ar
    37   20   21 ar
    38   20   49 1
    39   21   22 ar
    40   21   50 1
    41   22   23 ar
    42   22   28 1
    43   23   24 ar
    44   23   25 1
    45   24   51 1
    46   25   26 2
    47   25   27 1
    48   28   29 1
    49   29   52 1
    50   29   53 1
    51   29   54 1
    52   30   35 ar
    53   30   31 ar
    54   31   32 ar
    55   31   55 1
    56   32   33 ar
    57   32   56 1
    58   33   34 ar
    59   33   57 1
    60   34   35 ar
    61   34   58 1
    62   35   59 1
@<TRIPOS>MOLECULE
ZINC35692932
   65    68     0     0     0
SMALL
USER_CHARGES

@<TRIPOS>ATOM
      1 C1         -1.9628   -1.3109   -0.5784 C.3       1 <0>        -0.1470
      2 C2         -1.7471    0.1762   -0.8667 C.3       1 <0>        -0.1296
      3 C3         -1.6820    0.9473    0.4532 C.3       1 <0>         0.1549
      4 H1         -2.5792    0.7436    1.0377 H         1 <0>         0.0826
      5 C4         -1.5915    2.4470    0.1637 C.3       1 <0>        -0.1587
      6 N1         -0.5004    0.5236    1.2085 N.pl3     1 <0>        -0.7476
      7 C5         -0.5054    0.5822    2.5918 C.2       1 <0>         0.5035
      8 O1         -1.6362    0.9332    3.2512 O.3       1 <0>        -0.7030
      9 C6          0.6138    0.2904    3.2823 C.2       1 <0>        -0.4681
     10 C7          0.6463    0.4728    4.7404 C.2       1 <0>         0.2347
     11 C8         -0.4690    0.8006    5.4293 C.2       1 <0>        -0.3087
     12 S1          0.1418    0.8872    7.1006 S.3       1 <0>         0.1207
     13 C9          1.7501    0.5055    6.8071 C.2       1 <0>         0.3246
     14 N2          2.7771    0.3917    7.6201 N.2       1 <0>        -0.5866
     15 C10         4.0142    0.0781    7.2401 C.2       1 <0>         0.2857
     16 C11         4.2953   -0.1563    5.8942 C.2       1 <0>        -0.3578
     17 C12         3.1545   -0.0407    4.9082 C.3       1 <0>         0.2695
     18 H2          3.4257    0.7128    4.1687 H         1 <0>         0.0812
     19 N3          1.8168    0.3096    5.4554 N.pl3     1 <0>        -0.5211
     20 C13         3.0251   -1.3605    4.1925 C.ar      1 <0>        -0.0780
     21 C14         2.1710   -2.3314    4.6818 C.ar      1 <0>        -0.0765
     22 C15         2.0523   -3.5419    4.0254 C.ar      1 <0>        -0.1209
     23 C16         2.7874   -3.7817    2.8792 C.ar      1 <0>        -0.1181
     24 C17         3.6405   -2.8108    2.3895 C.ar      1 <0>        -0.1212
     25 C18         3.7560   -1.5983    3.0438 C.ar      1 <0>        -0.0730
     26 C19         4.6822   -0.5377    2.5070 C.3       1 <0>        -0.1210
     27 C20         5.5846   -0.4856    5.4721 C.2       1 <0>         0.5740
     28 O2          6.3084    0.3729    4.9970 O.2       1 <0>        -0.5173
     29 O3          6.0306   -1.7563    5.5902 O.3       1 <0>        -0.3440
     30 C21         7.3830   -2.0078    5.2029 C.3       1 <0>         0.0585
     31 C22         7.6674   -3.5087    5.2888 C.3       1 <0>        -0.1494
     32 C23         5.0940   -0.0216    8.2486 C.ar      1 <0>        -0.0372
     33 C24         6.3029    0.6451    8.0485 C.ar      1 <0>        -0.1037
     34 C25         7.3051    0.5482    8.9918 C.ar      1 <0>        -0.1225
     35 C26         7.1132   -0.2084   10.1341 C.ar      1 <0>        -0.1157
     36 C27         5.9166   -0.8722   10.3381 C.ar      1 <0>        -0.1253
     37 C28         4.9042   -0.7778    9.4054 C.ar      1 <0>        -0.0764
     38 H3         -2.8976   -1.4435   -0.0336 H         1 <0>         0.0526
     39 H4         -2.0093   -1.8602   -1.5187 H         1 <0>         0.0450
     40 H5         -1.1354   -1.6882    0.0224 H         1 <0>         0.0577
     41 H6         -0.8124    0.3088   -1.4115 H         1 <0>         0.0573
     42 H7         -2.5746    0.5536   -1.4675 H         1 <0>         0.0646
     43 H8         -1.6340    3.0012    1.1013 H         1 <0>         0.0590
     44 H9         -0.6513    2.6630   -0.3438 H         1 <0>         0.0453
     45 H10        -2.4247    2.7451   -0.4727 H         1 <0>         0.0487
     46 H11         0.2854    0.2020    0.7395 H         1 <0>         0.3821
     47 H12         1.4872   -0.0776    2.7646 H         1 <0>         0.0853
     48 H13        -1.4708    0.9672    5.0619 H         1 <0>         0.2359
     49 H14         1.5968   -2.1441    5.5771 H         1 <0>         0.1078
     50 H15         1.3857   -4.3006    4.4080 H         1 <0>         0.1158
     51 H16         2.6952   -4.7279    2.3666 H         1 <0>         0.1156
     52 H17         4.2149   -2.9983    1.4944 H         1 <0>         0.1158
     53 H18         5.6879   -0.7042    2.8931 H         1 <0>         0.0669
     54 H19         4.6984   -0.5866    1.4182 H         1 <0>         0.0655
     55 H20         4.3305    0.4449    2.8214 H         1 <0>         0.0694
     56 H21         7.5371   -1.6669    4.1791 H         1 <0>         0.0621
     57 H22         8.0577   -1.4713    5.8700 H         1 <0>         0.0609
     58 H23         6.9926   -4.0451    4.6217 H         1 <0>         0.0647
     59 H24         8.6989   -3.7005    4.9934 H         1 <0>         0.0733
     60 H25         7.5132   -3.8496    6.3126 H         1 <0>         0.0641
     61 H26         6.4542    1.2354    7.1568 H         1 <0>         0.1296
     62 H27         8.2416    1.0639    8.8380 H         1 <0>         0.1224
     63 H28         7.9008   -0.2814   10.8694 H         1 <0>         0.1204
     64 H29         5.7728   -1.4616   11.2317 H         1 <0>         0.1234
     65 H30         3.9688   -1.2926    9.5681 H         1 <0>         0.1271
@<TRIPOS>BOND
     1    1    2 1
     2    1   38 1
     3    1   39 1
     4    1   40 1
     5    2    3 1
     6    2   41 1
     7    2   42 1
     8    3    4 1
     9    3    5 1
    10    3    6 1
    11    5   43 1
    12    5   44 1
    13    5   45 1
    14    6    7 1
    15    6   46 1
    16    7    8 1
    17    7    9 2
    18    9   10 1
    19    9   47 1
    20   10   19 1
    21   10   11 2
    22   11   12 1
    23   11   48 1
    24   12   13 1
    25   13   19 1
    26   13   14 2
    27   14   15 1
    28   15   16 2
    29   15   32 1
    30   16   17 1
    31   16   27 1
    32   17   18 1
    33   17   19 1
    34   17   20 1
    35   20   25 ar
    36   20   21 ar
    37   21   22 ar
    38   21   49 1
    39   22   23 ar
    40   22   50 1
    41   23   24 ar
    42   23   51 1
    43   24   25 ar
    44   24   52 1
    45   25   26 1
    46   26   53 1
    47   26   54 1
    48   26   55 1
    49   27   28 2
    50   27   29 1
    51   29   30 1
    52   30   31 1
    53   30   56 1
    54   30   57 1
    55   31   58 1
    56   31   59 1
    57   31   60 1
    58   32   37 ar
    59   32   33 ar
    60   33   34 ar
    61   33   61 1
    62   34   35 ar
    63   34   62 1
    64   35   36 ar
    65   35   63 1
    66   36   37 ar
    67   36   64 1
    68   37   65 1
@<TRIPOS>MOLECULE
ZINC40401719
   65    68     0     0     0
SMALL
USER_CHARGES

@<TRIPOS>ATOM
      1 C1         -0.0005    1.5433    0.2362 C.3       1 <0>        -0.0911
      2 C2         -0.0038    0.0378    0.1706 C.2       1 <0>         0.2988
      3 C3         -1.2045   -0.6457    0.1527 C.2       1 <0>        -0.3890
      4 C4         -1.1555   -2.1558    0.0858 C.3       1 <0>         0.2598
      5 H1         -1.6837   -2.5475    0.9551 H         1 <0>         0.0724
      6 N1          0.1901   -2.7880    0.0445 N.pl3     1 <0>        -0.5126
      7 C5          0.4724   -4.1380   -0.0181 C.2       1 <0>         0.2346
      8 C6          1.7723   -4.5059   -0.0478 C.2       1 <0>        -0.3039
      9 S1          2.6027   -2.9307    0.0133 S.3       1 <0>         0.1427
     10 C7          1.2552   -1.9317    0.0714 C.2       1 <0>         0.3206
     11 N2          1.1430   -0.6205    0.1250 N.2       1 <0>        -0.5962
     12 C8         -0.6030   -5.1397   -0.0509 C.2       1 <0>        -0.4657
     13 C9         -0.3052   -6.4504    0.0347 C.2       1 <0>         0.5017
     14 O1          0.9682   -6.8411    0.2849 O.3       1 <0>        -0.7030
     15 N3         -1.3001   -7.3988   -0.1328 N.pl3     1 <0>        -0.7519
     16 C10        -0.9587   -8.8233   -0.1510 C.3       1 <0>         0.2195
     17 C11        -2.1908   -9.6312   -0.4674 C.2       1 <0>        -0.0154
     18 C12        -2.6024   -9.9891   -1.6970 C.2       1 <0>        -0.1988
     19 C13        -3.7932  -10.7329   -1.5299 C.2       1 <0>        -0.2158
     20 C14        -4.0379  -10.7850   -0.2083 C.2       1 <0>        -0.0460
     21 O2         -3.0610  -10.1210    0.4307 O.3       1 <0>        -0.1734
     22 C15        -1.9094   -2.5904   -1.1445 C.ar      1 <0>        -0.0719
     23 C16        -1.3486   -2.4172   -2.3960 C.ar      1 <0>        -0.0899
     24 C17        -2.0402   -2.8159   -3.5246 C.ar      1 <0>        -0.1207
     25 C18        -3.2924   -3.3882   -3.4016 C.ar      1 <0>        -0.0784
     26 C19        -3.8529   -3.5623   -2.1500 C.ar      1 <0>        -0.1171
     27 C20        -3.1595   -3.1675   -1.0212 C.ar      1 <0>        -0.0719
     28 C21        -4.0468   -3.8220   -4.6319 C.3       1 <0>        -0.0536
     29 C22        -4.3235   -5.3249   -4.5571 C.3       1 <0>        -0.1416
     30 C23        -5.3727   -3.0626   -4.7114 C.3       1 <0>        -0.1411
     31 C24        -2.4262    0.0372    0.1954 C.2       1 <0>         0.5364
     32 O3         -2.4422    1.2546    0.2495 O.2       1 <0>        -0.5509
     33 O4         -3.5875   -0.6537    0.1768 O.3       1 <0>        -0.3461
     34 C25        -4.7960    0.1074    0.2229 C.3       1 <0>         0.0829
     35 C26        -5.9012   -0.6449   -0.5211 C.3       1 <0>        -0.1453
     36 C27        -5.2125    0.3153    1.6804 C.3       1 <0>        -0.1678
     37 H2          1.0279    1.9047    0.2368 H         1 <0>         0.0633
     38 H3         -0.5265    1.9459   -0.6294 H         1 <0>         0.0856
     39 H4         -0.5004    1.8683    1.1486 H         1 <0>         0.0858
     40 H5          2.1975   -5.4975   -0.0955 H         1 <0>         0.2322
     41 H6         -1.6318   -4.8245   -0.1436 H         1 <0>         0.0929
     42 H7         -2.2232   -7.1199   -0.2382 H         1 <0>         0.3878
     43 H8         -0.1995   -9.0053   -0.9117 H         1 <0>         0.0864
     44 H9         -0.5725   -9.1168    0.8252 H         1 <0>         0.0658
     45 H10        -2.1169   -9.7531   -2.6324 H         1 <0>         0.1477
     46 H11        -4.3916  -11.1742   -2.3132 H         1 <0>         0.1457
     47 H12        -4.8758  -11.2803    0.2599 H         1 <0>         0.1995
     48 H13        -0.3702   -1.9700   -2.4921 H         1 <0>         0.1027
     49 H14        -1.6023   -2.6799   -4.5024 H         1 <0>         0.1119
     50 H15        -4.8314   -4.0092   -2.0539 H         1 <0>         0.1133
     51 H16        -3.5958   -3.3069   -0.0431 H         1 <0>         0.1161
     52 H17        -3.4507   -3.6060   -5.5186 H         1 <0>         0.0716
     53 H18        -4.9196   -5.5409   -3.6705 H         1 <0>         0.0558
     54 H19        -4.8692   -5.6386   -5.4470 H         1 <0>         0.0521
     55 H20        -3.3790   -5.8659   -4.5005 H         1 <0>         0.0568
     56 H21        -5.1755   -1.9919   -4.7647 H         1 <0>         0.0535
     57 H22        -5.9183   -3.3764   -5.6013 H         1 <0>         0.0528
     58 H23        -5.9688   -3.2786   -3.8247 H         1 <0>         0.0559
     59 H24        -4.6337    1.0758   -0.2503 H         1 <0>         0.0762
     60 H25        -6.0635   -1.6133   -0.0479 H         1 <0>         0.0632
     61 H26        -6.8230   -0.0643   -0.4859 H         1 <0>         0.0680
     62 H27        -5.6045   -0.7930   -1.5594 H         1 <0>         0.0621
     63 H28        -6.1344    0.8958    1.7155 H         1 <0>         0.0649
     64 H29        -5.3748   -0.6532    2.1535 H         1 <0>         0.0609
     65 H30        -4.4251    0.8512    2.2104 H         1 <0>         0.0594
@<TRIPOS>BOND
     1    1    2 1
     2    1   37 1
     3    1   38 1
     4    1   39 1
     5    2   11 1
     6    2    3 2
     7    3    4 1
     8    3   31 1
     9    4    5 1
    10    4    6 1
    11    4   22 1
    12    6   10 1
    13    6    7 1
    14    7    8 2
    15    7   12 1
    16    8    9 1
    17    8   40 1
    18    9   10 1
    19   10   11 2
    20   12   13 2
    21   12   41 1
    22   13   14 1
    23   13   15 1
    24   15   16 1
    25   15   42 1
    26   16   17 1
    27   16   43 1
    28   16   44 1
    29   17   21 1
    30   17   18 2
    31   18   19 1
    32   18   45 1
    33   19   20 2
    34   19   46 1
    35   20   21 1
    36   20   47 1
    37   22   27 ar
    38   22   23 ar
    39   23   24 ar
    40   23   48 1
    41   24   25 ar
    42   24   49 1
    43   25   26 ar
    44   25   28 1
    45   26   27 ar
    46   26   50 1
    47   27   51 1
    48   28   29 1
    49   28   30 1
    50   28   52 1
    51   29   53 1
    52   29   54 1
    53   29   55 1
    54   30   56 1
    55   30   57 1
    56   30   58 1
    57   31   32 2
    58   31   33 1
    59   33   34 1
    60   34   35 1
    61   34   36 1
    62   34   59 1
    63   35   60 1
    64   35   61 1
    65   35   62 1
    66   36   63 1
    67   36   64 1
    68   36   65 1
@<TRIPOS>MOLECULE
ZINC02346964
   55    58     0     0     0
SMALL
USER_CHARGES

@<TRIPOS>ATOM
      1 C1         -4.3434   -6.8245   -1.4431 C.3       1 <0>        -0.1519
      2 C2         -3.1090   -6.0132   -1.0447 C.3       1 <0>        -0.1208
      3 C3         -2.4468   -6.6578    0.1747 C.3       1 <0>        -0.1207
      4 C4         -1.2124   -5.8464    0.5732 C.3       1 <0>         0.0613
      5 O1         -0.5939   -6.4484    1.7121 O.3       1 <0>        -0.3143
      6 C5          0.5240   -5.8469    2.1971 C.ar      1 <0>         0.1481
      7 C6          1.0120   -4.6969    1.5918 C.ar      1 <0>        -0.2444
      8 C7          2.1483   -4.0837    2.0839 C.ar      1 <0>        -0.0607
      9 C8          2.8028   -4.6130    3.1794 C.ar      1 <0>        -0.1975
     10 C9          2.3194   -5.7642    3.7890 C.ar      1 <0>         0.2202
     11 C10         1.1742   -6.3780    3.2995 C.ar      1 <0>        -0.1570
     12 N1          2.9817   -6.3003    4.8964 N.pl3     1 <0>        -0.6322
     13 C11         3.0004   -7.6733    5.0959 C.ar      1 <0>         0.3673
     14 C12         3.5689   -8.2047    6.2785 C.ar      1 <0>         0.4190
     15 N2          4.1038   -7.3499    7.2304 N.2       1 <0>        -1.0695
     16 S1          4.7700   -7.9662    8.6156 S.o2      1 <0>         2.6389
     17 O2          3.7073   -8.5609    9.3477 O.2       1 <0>        -1.0078
     18 O3          5.9249   -8.6945    8.2217 O.2       1 <0>        -1.0082
     19 C13         5.3383   -6.6003    9.5727 C.ar      1 <0>        -0.6246
     20 C14         6.6254   -6.1253    9.4026 C.ar      1 <0>        -0.0106
     21 C15         7.0718   -5.0539   10.1531 C.ar      1 <0>        -0.1365
     22 C16         6.2302   -4.4568   11.0747 C.ar      1 <0>         0.0032
     23 C17         4.9422   -4.9326   11.2445 C.ar      1 <0>        -0.1364
     24 C18         4.4951   -6.0005   10.4894 C.ar      1 <0>        -0.0104
     25 Cl1         6.7903   -3.1115   12.0181 Cl        1 <0>        -0.0731
     26 N3          3.5925   -9.5057    6.4803 N.ar      1 <0>        -0.5657
     27 C19         3.0751  -10.3325    5.5594 C.ar      1 <0>         0.1201
     28 C20         3.0879  -11.7232    5.7518 C.ar      1 <0>        -0.1046
     29 C21         2.5560  -12.5422    4.8022 C.ar      1 <0>        -0.1133
     30 C22         1.9974  -12.0196    3.6388 C.ar      1 <0>        -0.1474
     31 C23         1.9680  -10.6755    3.4196 C.ar      1 <0>        -0.0707
     32 C24         2.5072   -9.8012    4.3769 C.ar      1 <0>         0.0412
     33 N4          2.4843   -8.4738    4.1864 N.ar      1 <0>        -0.4862
     34 H1         -5.0498   -6.8426   -0.6132 H         1 <0>         0.0554
     35 H2         -4.8152   -6.3653   -2.3119 H         1 <0>         0.0548
     36 H3         -4.0448   -7.8438   -1.6882 H         1 <0>         0.0559
     37 H4         -2.4026   -5.9952   -1.8746 H         1 <0>         0.0639
     38 H5         -3.4077   -4.9940   -0.7996 H         1 <0>         0.0634
     39 H6         -3.1532   -6.6758    1.0047 H         1 <0>         0.0729
     40 H7         -2.1481   -7.6770   -0.0704 H         1 <0>         0.0740
     41 H8         -0.5060   -5.8284   -0.2568 H         1 <0>         0.0591
     42 H9         -1.5111   -4.8272    0.8183 H         1 <0>         0.0584
     43 H10         0.5029   -4.2810    0.7349 H         1 <0>         0.1193
     44 H11         2.5257   -3.1891    1.6111 H         1 <0>         0.1210
     45 H12         3.6909   -4.1320    3.5618 H         1 <0>         0.1230
     46 H13         0.7936   -7.2703    3.7742 H         1 <0>         0.1439
     47 H14         3.4284   -5.7127    5.5257 H         1 <0>         0.4320
     48 H15         7.2824   -6.5917    8.6835 H         1 <0>         0.1467
     49 H16         8.0774   -4.6832   10.0204 H         1 <0>         0.1379
     50 H17         4.2849   -4.4671   11.9640 H         1 <0>         0.1379
     51 H18         3.4882   -6.3690   10.6184 H         1 <0>         0.1468
     52 H19         3.5183  -12.1421    6.6494 H         1 <0>         0.1238
     53 H20         2.5680  -13.6115    4.9536 H         1 <0>         0.1170
     54 H21         1.5820  -12.6890    2.9001 H         1 <0>         0.1164
     55 H22         1.5320  -10.2837    2.5125 H         1 <0>         0.1217
@<TRIPOS>BOND
     1    1    2 1
     2    1   34 1
     3    1   35 1
     4    1   36 1
     5    2    3 1
     6    2   37 1
     7    2   38 1
     8    3    4 1
     9    3   39 1
    10    3   40 1
    11    4    5 1
    12    4   41 1
    13    4   42 1
    14    5    6 1
    15    6   11 ar
    16    6    7 ar
    17    7    8 ar
    18    7   43 1
    19    8    9 ar
    20    8   44 1
    21    9   10 ar
    22    9   45 1
    23   10   11 ar
    24   10   12 1
    25   11   46 1
    26   12   13 1
    27   12   47 1
    28   13   33 ar
    29   13   14 ar
    30   14   15 1
    31   14   26 ar
    32   15   16 1
    33   16   17 2
    34   16   18 2
    35   16   19 1
    36   19   24 ar
    37   19   20 ar
    38   20   21 ar
    39   20   48 1
    40   21   22 ar
    41   21   49 1
    42   22   23 ar
    43   22   25 1
    44   23   24 ar
    45   23   50 1
    46   24   51 1
    47   26   27 ar
    48   27   32 ar
    49   27   28 ar
    50   28   29 ar
    51   28   52 1
    52   29   30 ar
    53   29   53 1
    54   30   31 ar
    55   30   54 1
    56   31   32 ar
    57   31   55 1
    58   32   33 ar
@<TRIPOS>MOLECULE
ZINC59855087
   59    62     0     0     0
SMALL
USER_CHARGES

@<TRIPOS>ATOM
      1 C1         -0.0184    1.5028    0.0103 C.3       1 <0>        -0.1167
      2 C2          0.0021   -0.0041    0.0020 C.ar      1 <0>        -0.0513
      3 C3          0.0057   -0.6883   -1.1997 C.ar      1 <0>        -0.1555
      4 C4          0.0244   -2.0706   -1.2107 C.ar      1 <0>        -0.0747
      5 C5          0.0391   -2.7719   -0.0203 C.ar      1 <0>        -0.1092
      6 C6          0.0355   -2.0879    1.1864 C.ar      1 <0>         0.1361
      7 C7          0.0229   -0.7004    1.1947 C.ar      1 <0>        -0.2068
      8 O1          0.0500   -2.7755    2.3585 O.3       1 <0>        -0.3050
      9 C8          0.0452   -2.0055    3.5624 C.3       1 <0>         0.0781
     10 C9          0.0632   -2.9458    4.7692 C.3       1 <0>        -0.1176
     11 S1          0.0571   -1.9685    6.2974 S.3       1 <0>         0.0421
     12 C10         0.0791   -3.1789    7.5776 C.2       1 <0>         0.0914
     13 N1          0.1018   -4.4893    7.4731 N.2       1 <0>        -0.4852
     14 C11         0.1174   -5.3030    8.5504 C.ar      1 <0>         0.0408
     15 C12         0.1418   -6.7185    8.5722 C.ar      1 <0>        -0.0327
     16 C13         0.1543   -7.4008    9.7452 C.ar      1 <0>        -0.1589
     17 C14         0.1441   -6.7355   10.9784 C.ar      1 <0>         0.1545
     18 C15         0.1206   -5.3375   10.9939 C.ar      1 <0>        -0.0767
     19 C16         0.1076   -4.6538    9.8077 C.ar      1 <0>        -0.1109
     20 S2          0.0839   -2.9375    9.3484 S.3       1 <0>         0.0432
     21 N2          0.1566   -7.4427   12.1489 N.2       1 <0>        -0.4621
     22 C17        -0.6248   -8.4763   12.2945 C.2       1 <0>         0.2465
     23 C18        -0.6114   -9.2366   13.5530 C.ar      1 <0>        -0.2351
     24 C19        -1.4435  -10.3495   13.7117 C.ar      1 <0>         0.0375
     25 C20        -1.4253  -11.0575   14.8937 C.ar      1 <0>        -0.1840
     26 C21        -0.5865  -10.6720   15.9266 C.ar      1 <0>        -0.0124
     27 C22         0.2405   -9.5745   15.7837 C.ar      1 <0>        -0.2362
     28 C23         0.2406   -8.8537   14.6001 C.ar      1 <0>         0.3229
     29 O2          1.0570   -7.7790   14.4565 O.3       1 <0>        -0.6096
     30 N3         -2.3064  -12.2352   15.0608 N.pl3     1 <0>         0.0714
     31 O3         -3.0398  -12.5738   14.1613 O.2       1 <0>        -0.2203
     32 O4         -2.2926  -12.8584   16.0967 O.3       1 <0>        -0.2177
     33 C24         0.0585   -4.2788   -0.0330 C.3       1 <0>        -0.0529
     34 C25        -1.1875   -4.7988   -0.7527 C.3       1 <0>        -0.1425
     35 C26         1.3107   -4.7665   -0.7644 C.3       1 <0>        -0.1425
     36 H1          1.0042    1.8801    0.0026 H         1 <0>         0.0724
     37 H2         -0.5455    1.8639   -0.8728 H         1 <0>         0.0682
     38 H3         -0.5286    1.8543    0.9071 H         1 <0>         0.0666
     39 H4         -0.0065   -0.1419   -2.1312 H         1 <0>         0.1224
     40 H5          0.0272   -2.6027   -2.1505 H         1 <0>         0.1278
     41 H6          0.0248   -0.1655    2.1329 H         1 <0>         0.1279
     42 H7          0.9269   -1.3651    3.5876 H         1 <0>         0.0746
     43 H8         -0.8529   -1.3888    3.5957 H         1 <0>         0.0746
     44 H9         -0.8185   -3.5862    4.7440 H         1 <0>         0.1077
     45 H10         0.9613   -3.5626    4.7359 H         1 <0>         0.1078
     46 H11         0.1501   -7.2641    7.6402 H         1 <0>         0.1306
     47 H12         0.1721   -8.4806    9.7279 H         1 <0>         0.1336
     48 H13         0.1121   -4.8025   11.9321 H         1 <0>         0.1408
     49 H14        -1.2819   -8.7740   11.4908 H         1 <0>         0.0955
     50 H15        -2.0996  -10.6531   12.9093 H         1 <0>         0.1313
     51 H16        -0.5792  -11.2328   16.8496 H         1 <0>         0.1268
     52 H17         0.8911   -9.2806   16.5941 H         1 <0>         0.1241
     53 H18         0.0682   -4.6506    0.9915 H         1 <0>         0.0855
     54 H19        -1.1971   -4.4269   -1.7772 H         1 <0>         0.0544
     55 H20        -1.1735   -5.8887   -0.7618 H         1 <0>         0.0578
     56 H21        -2.0796   -4.4513   -0.2316 H         1 <0>         0.0547
     57 H22         2.1984   -4.3960   -0.2518 H         1 <0>         0.0547
     58 H23         1.3248   -5.8564   -0.7736 H         1 <0>         0.0578
     59 H24         1.3011   -4.3946   -1.7890 H         1 <0>         0.0544
@<TRIPOS>BOND
     1    1    2 1
     2    1   36 1
     3    1   37 1
     4    1   38 1
     5    2    7 ar
     6    2    3 ar
     7    3    4 ar
     8    3   39 1
     9    4    5 ar
    10    4   40 1
    11    5    6 ar
    12    5   33 1
    13    6    7 ar
    14    6    8 1
    15    7   41 1
    16    8    9 1
    17    9   10 1
    18    9   42 1
    19    9   43 1
    20   10   11 1
    21   10   44 1
    22   10   45 1
    23   11   12 1
    24   12   20 1
    25   12   13 2
    26   13   14 1
    27   14   19 ar
    28   14   15 ar
    29   15   16 ar
    30   15   46 1
    31   16   17 ar
    32   16   47 1
    33   17   18 ar
    34   17   21 1
    35   18   19 ar
    36   18   48 1
    37   19   20 1
    38   21   22 2
    39   22   23 1
    40   22   49 1
    41   23   28 ar
    42   23   24 ar
    43   24   25 ar
    44   24   50 1
    45   25   26 ar
    46   25   30 1
    47   26   27 ar
    48   26   51 1
    49   27   28 ar
    50   27   52 1
    51   28   29 1
    52   30   31 2
    53   30   32 1
    54   33   34 1
    55   33   35 1
    56   33   53 1
    57   34   54 1
    58   34   55 1
    59   34   56 1
    60   35   57 1
    61   35   58 1
    62   35   59 1
@<TRIPOS>MOLECULE
ZINC03172846
   38    40     0     0     0
SMALL
USER_CHARGES

@<TRIPOS>ATOM
      1 C1         -0.0012    1.3921    0.3273 C.3       1 <0>        -0.1723
      2 C2         -0.0502   -0.1109    0.4260 C.2       1 <0>         0.5055
      3 O1          0.8466   -0.7119    0.9790 O.2       1 <0>        -0.5388
      4 N1         -1.0905   -0.7872   -0.1001 N.am      1 <0>        -0.6490
      5 C3         -1.0821   -2.1834   -0.1103 C.ar      1 <0>         0.1002
      6 C4          0.1207   -2.8722   -0.0758 C.ar      1 <0>        -0.0852
      7 C5          0.1300   -4.2535   -0.0864 C.ar      1 <0>        -0.2130
      8 C6         -1.0636   -4.9653   -0.1317 C.ar      1 <0>         0.1190
      9 C7         -2.2722   -4.2963   -0.1665 C.ar      1 <0>        -0.1319
     10 C8         -2.2940   -2.8964   -0.1499 C.ar      1 <0>         0.1481
     11 N2         -3.4779   -2.2309   -0.1777 N.2       1 <0>        -0.5185
     12 C9         -4.3273   -2.4407   -1.1596 C.2       1 <0>         0.3082
     13 C10        -5.7163   -1.9287   -1.2527 C.ar      1 <0>        -0.0185
     14 C11        -6.2421   -2.4027   -2.4709 C.ar      1 <0>        -0.0387
     15 C12        -7.5480   -2.0736   -2.8267 C.ar      1 <0>         0.0084
     16 C13        -8.3166   -1.2858   -1.9833 C.ar      1 <0>        -0.0158
     17 C14        -7.7963   -0.8224   -0.7877 C.ar      1 <0>        -0.0261
     18 C15        -6.4961   -1.1412   -0.4193 C.ar      1 <0>         0.0153
     19 Cl1        -5.8489   -0.5568    1.0818 Cl        1 <0>        -0.0137
     20 Cl2        -8.7732    0.1628    0.2557 Cl        1 <0>        -0.0225
     21 Cl3        -9.9435   -0.8775   -2.4308 Cl        1 <0>        -0.0229
     22 Cl4        -8.2120   -2.6484   -4.3241 Cl        1 <0>        -0.0109
     23 C16        -5.1989   -3.2034   -3.1380 C.2       1 <0>         0.3350
     24 C17        -4.0818   -3.2213   -2.3774 C.2       1 <0>        -0.3757
     25 Cl5        -2.6017   -4.0372   -2.7739 Cl        1 <0>        -0.0584
     26 O2         -5.3377   -3.8240   -4.3364 O.3       1 <0>        -0.6083
     27 O3         -1.0414   -6.3248   -0.1421 O.3       1 <0>        -0.3181
     28 C18         0.2415   -6.9530   -0.1050 C.3       1 <0>         0.0311
     29 H1          0.9072    1.7582    0.8056 H         1 <0>         0.0920
     30 H2         -0.0038    1.6875   -0.7219 H         1 <0>         0.0888
     31 H3         -0.8716    1.8175    0.8268 H         1 <0>         0.0886
     32 H4         -1.8451   -0.3041   -0.4716 H         1 <0>         0.4119
     33 H5          1.0526   -2.3275   -0.0409 H         1 <0>         0.1425
     34 H6          1.0704   -4.7839   -0.0597 H         1 <0>         0.1211
     35 H7         -3.1977   -4.8518   -0.2020 H         1 <0>         0.1285
     36 H8          0.7640   -6.6586    0.8052 H         1 <0>         0.0505
     37 H9          0.1164   -8.0357   -0.1180 H         1 <0>         0.0930
     38 H10         0.8227   -6.6439   -0.9737 H         1 <0>         0.0507
@<TRIPOS>BOND
     1    1    2 1
     2    1   29 1
     3    1   30 1
     4    1   31 1
     5    2    3 2
     6    2    4 am
     7    4    5 1
     8    4   32 1
     9    5   10 ar
    10    5    6 ar
    11    6    7 ar
    12    6   33 1
    13    7    8 ar
    14    7   34 1
    15    8    9 ar
    16    8   27 1
    17    9   10 ar
    18    9   35 1
    19   10   11 1
    20   11   12 2
    21   12   24 1
    22   12   13 1
    23   13   18 ar
    24   13   14 ar
    25   14   15 ar
    26   14   23 1
    27   15   16 ar
    28   15   22 1
    29   16   17 ar
    30   16   21 1
    31   17   18 ar
    32   17   20 1
    33   18   19 1
    34   23   26 1
    35   23   24 2
    36   24   25 1
    37   27   28 1
    38   28   36 1
    39   28   37 1
    40   28   38 1
@<TRIPOS>MOLECULE
ZINC33622103
   48    52     0     0     0
SMALL
USER_CHARGES
(4E,5S)-4-[(4-chlorophenyl)-hydroxy-methylene]-1-(4,6-dimethyl-1,3-benzothiazol-2-yl)-5-(2-thienyl)pyrrolidine-2,3-dione
@<TRIPOS>ATOM
      1 C1         -1.0705    2.9369   -7.9494 C.3       1 <0>        -0.1093
      2 C2         -0.8562    3.3674   -6.5213 C.ar      1 <0>        -0.0781
      3 C3         -1.6074    4.4013   -5.9806 C.ar      1 <0>        -0.1120
      4 C4         -1.4319    4.8127   -4.6855 C.ar      1 <0>        -0.0335
      5 C5         -0.4724    4.1902   -3.8533 C.ar      1 <0>         0.1107
      6 C6          0.2740    3.1413   -4.4377 C.ar      1 <0>        -0.1535
      7 C7          0.0913    2.7364   -5.7364 C.ar      1 <0>        -0.0660
      8 S1          1.3355    2.6434   -3.1027 S.3       1 <0>         0.0134
      9 C8          0.7422    3.8187   -1.8940 C.2       1 <0>         0.4123
     10 N1         -0.1806    4.4686   -2.5648 N.2       1 <0>        -0.5296
     11 N2          1.1480    3.9949   -0.5827 N.am      1 <0>        -0.5052
     12 C9          2.1882    3.2185    0.0980 C.3       1 <0>         0.3127
     13 H1          3.1387    3.3156   -0.4471 H         1 <0>         0.1011
     14 C10         2.2840    3.7634    1.5044 C.2       1 <0>        -0.4934
     15 C11         3.1327    3.3338    2.5040 C.2       1 <0>         0.4057
     16 C12         3.2021    4.0699    3.7779 C.ar      1 <0>        -0.0698
     17 C13         3.4099    5.4533    3.7798 C.ar      1 <0>        -0.0435
     18 C14         3.4680    6.1364    4.9753 C.ar      1 <0>        -0.1182
     19 C15         3.3327    5.4544    6.1740 C.ar      1 <0>        -0.0313
     20 C16         3.1323    4.0833    6.1799 C.ar      1 <0>        -0.1238
     21 C17         3.0663    3.3881    4.9918 C.ar      1 <0>        -0.0744
     22 Cl1         3.4150    6.3219    7.6755 Cl        1 <0>        -0.0886
     23 O1          3.8994    2.2389    2.3144 O.2       1 <0>        -0.6117
     24 C18         1.3349    4.7952    1.5886 C.2       1 <0>         0.3839
     25 O2          1.1096    5.4803    2.5696 O.3       1 <0>        -0.4773
     26 C19         0.6526    4.9059    0.2716 C.2       1 <0>         0.4795
     27 O3         -0.2240    5.7031    0.0072 O.2       1 <0>        -0.4584
     28 C20         1.8044    1.7616    0.1341 C.2       1 <0>        -0.1243
     29 C21         2.5941    0.6674    0.0054 C.2       1 <0>        -0.1292
     30 C22         2.0174   -0.5870    0.0716 C.2       1 <0>        -0.1447
     31 C23         0.6791   -0.6859    0.2631 C.2       1 <0>        -0.1910
     32 S2          0.1917    1.0290    0.3566 S.3       1 <0>         0.0234
     33 C24        -2.2706    5.9404   -4.1417 C.3       1 <0>        -0.1189
     34 H2         -1.8597    3.5539   -8.4039 H         1 <0>         0.0671
     35 H3         -1.3729    1.8796   -7.9722 H         1 <0>         0.0705
     36 H4         -0.1353    3.0631   -8.5147 H         1 <0>         0.0705
     37 H5         -2.3471    4.8932   -6.5949 H         1 <0>         0.1289
     38 H6          0.6836    1.9298   -6.1426 H         1 <0>         0.1289
     39 H7          3.5200    5.9854    2.8464 H         1 <0>         0.1291
     40 H8          3.6239    7.2051    4.9781 H         1 <0>         0.1288
     41 H9          3.0280    3.5581    7.1179 H         1 <0>         0.1283
     42 H10         2.9105    2.3194    4.9979 H         1 <0>         0.1308
     43 H11         3.6580    0.7742   -0.1468 H         1 <0>         0.1341
     44 H12         2.6239   -1.4750   -0.0282 H         1 <0>         0.1276
     45 H13         0.0666   -1.5722    0.3391 H         1 <0>         0.1782
     46 H14        -1.9935    6.1315   -3.0944 H         1 <0>         0.0833
     47 H15        -3.3343    5.6651   -4.1951 H         1 <0>         0.0685
     48 H16        -2.0963    6.8479   -4.7385 H         1 <0>         0.0684
@<TRIPOS>BOND
     1    1    2 1
     2    1   34 1
     3    1   35 1
     4    1   36 1
     5    2    7 ar
     6    2    3 ar
     7    3    4 ar
     8    3   37 1
     9    4    5 ar
    10    4   33 1
    11    5   10 1
    12    5    6 ar
    13    6    7 ar
    14    6    8 1
    15    7   38 1
    16    8    9 1
    17    9   10 2
    18    9   11 1
    19   11   26 am
    20   11   12 1
    21   12   14 1
    22   12   28 1
    23   12   13 1
    24   14   24 2
    25   14   15 1
    26   15   23 2
    27   15   16 1
    28   16   21 ar
    29   16   17 ar
    30   17   18 ar
    31   17   39 1
    32   18   19 ar
    33   18   40 1
    34   19   20 ar
    35   19   22 1
    36   20   21 ar
    37   20   41 1
    38   21   42 1
    39   24   26 1
    40   24   25 1
    41   26   27 2
    42   28   32 1
    43   28   29 2
    44   29   30 1
    45   29   43 1
    46   30   31 2
    47   30   44 1
    48   31   32 1
    49   31   45 1
    50   33   46 1
    51   33   47 1
    52   33   48 1
@<TRIPOS>MOLECULE
ZINC35494088
   80    84     0     0     0
SMALL
USER_CHARGES

@<TRIPOS>ATOM
      1 C1         -1.5068   -0.8543   -0.0028 C.3       1 <0>        -0.1221
      2 C2         -0.5178   -0.4458   -1.0640 C.2       1 <0>        -0.0838
      3 C3          0.3700    0.4831   -0.8092 C.2       1 <0>        -0.2246
      4 C4         -0.5498   -1.0978   -2.4015 C.3       1 <0>        -0.0682
      5 H1         -0.6114   -2.1941   -2.2386 H         1 <0>         0.0796
      6 C5          0.7430   -0.8086   -3.2019 C.3       1 <0>        -0.1096
      7 C6          0.3760   -1.1853   -4.6509 C.3       1 <0>        -0.1111
      8 C7         -1.1550   -1.3692   -4.6619 C.3       1 <0>        -0.1169
      9 C8         -1.6781   -0.6763   -3.3851 C.3       1 <0>        -0.0259
     10 H2         -2.6387   -1.1130   -3.0708 H         1 <0>         0.0807
     11 C9         -1.7654    0.8263   -3.5381 C.3       1 <0>        -0.0438
     12 H3         -0.7077    1.1986   -3.5495 H         1 <0>         0.0522
     13 C10        -2.4409    1.5324   -2.3698 C.3       1 <0>        -0.1136
     14 C11        -3.9666    1.4183   -2.4073 C.3       1 <0>        -0.1149
     15 C12        -4.4570    2.0627   -3.6985 C.3       1 <0>        -0.0577
     16 H4         -4.0324    3.0894   -3.7192 H         1 <0>         0.0569
     17 C13        -5.9724    2.2578   -3.7042 C.3       1 <0>        -0.0329
     18 C14        -6.3117    3.3037   -2.6251 C.3       1 <0>        -0.1102
     19 C15        -7.8108    3.5899   -2.6463 C.3       1 <0>        -0.1490
     20 C16        -8.2263    4.1844   -3.9887 C.3       1 <0>         0.1195
     21 H5         -7.7619    5.1699   -4.1043 H         1 <0>         0.0455
     22 C17        -7.8079    3.3049   -5.1680 C.3       1 <0>        -0.0370
     23 C18        -6.3778    2.8345   -5.0550 C.3       1 <0>        -0.0557
     24 H6         -5.7445    3.7533   -5.1844 H         1 <0>         0.0530
     25 C19        -5.9522    1.9007   -6.1842 C.3       1 <0>        -0.1119
     26 C20        -4.4167    1.8452   -6.1979 C.3       1 <0>        -0.1131
     27 C21        -3.8979    1.2789   -4.8747 C.3       1 <0>        -0.0203
     28 C22        -2.3692    1.3245   -4.8491 C.3       1 <0>        -0.0243
     29 C23        -1.7799    0.6304   -6.0692 C.3       1 <0>        -0.0992
     30 C24        -1.7322   -0.8750   -5.9627 C.3       1 <0>        -0.0892
     31 C25        -1.9223    2.8062   -4.9888 C.3       1 <0>        -0.1547
     32 C26        -4.3520   -0.1876   -4.8074 C.3       1 <0>        -0.1672
     33 C27        -7.9223    4.2026   -6.4293 C.3       1 <0>        -0.1470
     34 C28        -8.8049    2.1603   -5.3468 C.3       1 <0>        -0.1322
     35 O1         -9.6492    4.3511   -4.0098 O.3       1 <0>        -0.5655
     36 C29        -6.7074    0.9744   -3.3457 C.3       1 <0>        -0.1520
     37 C30        -1.4500   -2.8488   -4.5587 C.2       1 <0>         0.5009
     38 O2         -0.5333   -3.6514   -4.5124 O.co2     1 <0>        -0.6981
     39 O3         -2.6045   -3.2392   -4.5218 O.co2     1 <0>        -0.6959
     40 H7         -2.3608   -0.1772   -0.0221 H         1 <0>         0.0672
     41 H8         -1.8458   -1.8723   -0.1945 H         1 <0>         0.0631
     42 H9         -1.0291   -0.8087    0.9759 H         1 <0>         0.0559
     43 H10         0.4436    0.9020    0.1835 H         1 <0>         0.0857
     44 H11         1.0284    0.8300   -1.5918 H         1 <0>         0.1001
     45 H12         0.9965    0.2468   -3.1351 H         1 <0>         0.0561
     46 H13         1.5572   -1.4317   -2.8410 H         1 <0>         0.0537
     47 H14         0.6565   -0.3819   -5.3301 H         1 <0>         0.0393
     48 H15         0.8637   -2.1153   -4.9385 H         1 <0>         0.0811
     49 H16        -2.1026    1.2198   -1.3949 H         1 <0>         0.0661
     50 H17        -2.1929    2.6134   -2.4216 H         1 <0>         0.0416
     51 H18        -4.2532    0.3784   -2.3291 H         1 <0>         0.0704
     52 H19        -4.3772    1.9582   -1.5472 H         1 <0>         0.0499
     53 H20        -6.0282    2.9086   -1.6495 H         1 <0>         0.0671
     54 H21        -5.7537    4.2159   -2.8296 H         1 <0>         0.0583
     55 H22        -8.3857    2.6933   -2.4320 H         1 <0>         0.0766
     56 H23        -8.0378    4.3204   -1.8564 H         1 <0>         0.0522
     57 H24        -6.3652    0.9093   -6.0589 H         1 <0>         0.0699
     58 H25        -6.2814    2.2954   -7.1499 H         1 <0>         0.0553
     59 H26        -4.1138    1.1890   -7.0184 H         1 <0>         0.0624
     60 H27        -4.0385    2.8460   -6.3807 H         1 <0>         0.0575
     61 H28        -2.3549    0.9149   -6.9632 H         1 <0>         0.0544
     62 H29        -0.7580    1.0140   -6.2312 H         1 <0>         0.0460
     63 H30        -1.0493   -1.2407   -6.7642 H         1 <0>         0.0325
     64 H31        -2.6799   -1.3471   -6.1777 H         1 <0>         0.0755
     65 H32        -0.8337    2.8567   -5.0117 H         1 <0>         0.0468
     66 H33        -2.3248    3.2216   -5.9127 H         1 <0>         0.0505
     67 H34        -2.2948    3.3797   -4.1400 H         1 <0>         0.0537
     68 H35        -5.4399   -0.2290   -4.7550 H         1 <0>         0.0540
     69 H36        -4.0108   -0.7149   -5.6982 H         1 <0>         0.0647
     70 H37        -3.9273   -0.6591   -3.9211 H         1 <0>         0.0741
     71 H38        -7.2611    5.0628   -6.3242 H         1 <0>         0.0470
     72 H39        -7.6352    3.6292   -7.3107 H         1 <0>         0.0562
     73 H40        -8.9509    4.5463   -6.5386 H         1 <0>         0.0573
     74 H41        -9.7734    2.5647   -5.6411 H         1 <0>         0.0566
     75 H42        -8.4444    1.4818   -6.1200 H         1 <0>         0.0526
     76 H43        -8.9080    1.6181   -4.4069 H         1 <0>         0.0565
     77 H44        -9.9868    4.9370   -3.3186 H         1 <0>         0.3712
     78 H45        -6.1831    0.4700   -2.5340 H         1 <0>         0.0594
     79 H46        -7.7227    1.2134   -3.0291 H         1 <0>         0.0538
     80 H47        -6.7430    0.3205   -4.2170 H         1 <0>         0.0674
@<TRIPOS>BOND
     1    1    2 1
     2    1   40 1
     3    1   41 1
     4    1   42 1
     5    2    3 2
     6    2    4 1
     7    3   43 1
     8    3   44 1
     9    4    5 1
    10    4    9 1
    11    4    6 1
    12    6    7 1
    13    6   45 1
    14    6   46 1
    15    7    8 1
    16    7   47 1
    17    7   48 1
    18    8   30 1
    19    8    9 1
    20    8   37 1
    21    9   10 1
    22    9   11 1
    23   11   12 1
    24   11   28 1
    25   11   13 1
    26   13   14 1
    27   13   49 1
    28   13   50 1
    29   14   15 1
    30   14   51 1
    31   14   52 1
    32   15   16 1
    33   15   27 1
    34   15   17 1
    35   17   23 1
    36   17   18 1
    37   17   36 1
    38   18   19 1
    39   18   53 1
    40   18   54 1
    41   19   20 1
    42   19   55 1
    43   19   56 1
    44   20   21 1
    45   20   22 1
    46   20   35 1
    47   22   23 1
    48   22   33 1
    49   22   34 1
    50   23   24 1
    51   23   25 1
    52   25   26 1
    53   25   57 1
    54   25   58 1
    55   26   27 1
    56   26   59 1
    57   26   60 1
    58   27   28 1
    59   27   32 1
    60   28   29 1
    61   28   31 1
    62   29   30 1
    63   29   61 1
    64   29   62 1
    65   30   63 1
    66   30   64 1
    67   31   65 1
    68   31   66 1
    69   31   67 1
    70   32   68 1
    71   32   69 1
    72   32   70 1
    73   33   71 1
    74   33   72 1
    75   33   73 1
    76   34   74 1
    77   34   75 1
    78   34   76 1
    79   35   77 1
    80   36   78 1
    81   36   79 1
    82   36   80 1
    83   37   38 2
    84   37   39 1
@<TRIPOS>MOLECULE
ZINC39887465
   50    53     0     0     0
SMALL
USER_CHARGES

@<TRIPOS>ATOM
      1 C1         -0.0184    1.5028    0.0103 C.3       1 <0>        -0.1083
      2 C2          0.0021   -0.0041    0.0020 C.ar      1 <0>        -0.0949
      3 C3          0.0058   -0.6883   -1.2000 C.ar      1 <0>        -0.1113
      4 C4          0.0245   -2.0707   -1.2120 C.ar      1 <0>        -0.1182
      5 C5          0.0396   -2.7731   -0.0228 C.ar      1 <0>        -0.0441
      6 C6          0.0364   -2.0892    1.1859 C.ar      1 <0>         0.1590
      7 C7          0.0228   -0.7001    1.1944 C.ar      1 <0>        -0.1052
      8 N1          0.0516   -2.7971    2.3916 N.pl3     1 <0>        -0.5719
      9 C8          1.3222   -3.1530    3.0321 C.3       1 <0>         0.4668
     10 H1          2.1309   -2.5829    2.5749 H         1 <0>         0.1242
     11 N2          1.2582   -2.8462    4.4623 N.am      1 <0>        -0.7344
     12 C9          0.0875   -2.9135    5.1268 C.2       1 <0>         0.6001
     13 O1          0.0501   -2.6983    6.3248 O.2       1 <0>        -0.5597
     14 C10        -1.1397   -3.2465    4.3997 C.2       1 <0>        -0.3212
     15 C11        -1.1225   -3.1665    2.9997 C.2       1 <0>         0.4477
     16 S1         -2.5624   -3.5341    2.0532 S.3       1 <0>        -0.7708
     17 C12        -2.3255   -3.6387    5.1002 C.1       1 <0>         0.3371
     18 N3         -3.2662   -3.9498    5.6559 N.1       1 <0>        -0.4949
     19 C13         1.5811   -4.6261    2.8478 C.2       1 <0>        -0.0314
     20 C14         2.2598   -5.4173    3.7015 C.2       1 <0>        -0.1825
     21 C15         2.2656   -6.7131    3.1475 C.2       1 <0>        -0.1790
     22 C16         1.5828   -6.6404    1.9741 C.2       1 <0>         0.0100
     23 O2          1.1685   -5.3696    1.8082 O.3       1 <0>        -0.1316
     24 C17         1.3331   -7.7623    1.0451 C.ar      1 <0>        -0.0035
     25 C18         1.8106   -9.0397    1.3440 C.ar      1 <0>        -0.0703
     26 C19         1.5737  -10.0825    0.4728 C.ar      1 <0>        -0.1157
     27 C20         0.8644   -9.8647   -0.6953 C.ar      1 <0>        -0.0735
     28 C21         0.3888   -8.6013   -0.9978 C.ar      1 <0>        -0.1777
     29 C22         0.6139   -7.5506   -0.1322 C.ar      1 <0>        -0.0585
     30 C23        -0.3817   -8.3733   -2.2726 C.3       1 <0>         0.5078
     31 F1         -0.4852   -9.5778   -2.9767 F         1 <0>        -0.1788
     32 F2         -1.6623   -7.9012   -1.9654 F         1 <0>        -0.1699
     33 F3          0.2870   -7.4293   -3.0593 F         1 <0>        -0.1753
     34 C24         0.0590   -4.2799   -0.0368 C.3       1 <0>        -0.1194
     35 H2          1.0042    1.8801    0.0026 H         1 <0>         0.0656
     36 H3         -0.5455    1.8639   -0.8728 H         1 <0>         0.0637
     37 H4         -0.5286    1.8543    0.9071 H         1 <0>         0.0641
     38 H5         -0.0063   -0.1414   -2.1312 H         1 <0>         0.1187
     39 H6          0.0270   -2.6020   -2.1523 H         1 <0>         0.1213
     40 H7          0.0244   -0.1652    2.1327 H         1 <0>         0.1212
     41 H8          2.0658   -2.5925    4.9359 H         1 <0>         0.4062
     42 H9          2.7141   -5.1154    4.6336 H         1 <0>         0.1513
     43 H10         2.7242   -7.5936    3.5726 H         1 <0>         0.1498
     44 H11         2.3646   -9.2109    2.2551 H         1 <0>         0.1380
     45 H12         1.9428  -11.0711    0.7026 H         1 <0>         0.1403
     46 H13         0.6816  -10.6846   -1.3741 H         1 <0>         0.1400
     47 H14         0.2380   -6.5658   -0.3671 H         1 <0>         0.1462
     48 H15         1.0912   -4.6299   -0.0454 H         1 <0>         0.0649
     49 H16        -0.4455   -4.6581    0.8523 H         1 <0>         0.1012
     50 H17        -0.4547   -4.6416   -0.9275 H         1 <0>         0.0570
@<TRIPOS>BOND
     1    1    2 1
     2    1   35 1
     3    1   36 1
     4    1   37 1
     5    2    7 ar
     6    2    3 ar
     7    3    4 ar
     8    3   38 1
     9    4    5 ar
    10    4   39 1
    11    5    6 ar
    12    5   34 1
    13    6    7 ar
    14    6    8 1
    15    7   40 1
    16    8   15 1
    17    8    9 1
    18    9   10 1
    19    9   11 1
    20    9   19 1
    21   11   12 am
    22   11   41 1
    23   12   13 2
    24   12   14 1
    25   14   15 2
    26   14   17 1
    27   15   16 1
    28   17   18 3
    29   19   23 1
    30   19   20 2
    31   20   21 1
    32   20   42 1
    33   21   22 2
    34   21   43 1
    35   22   23 1
    36   22   24 1
    37   24   29 ar
    38   24   25 ar
    39   25   26 ar
    40   25   44 1
    41   26   27 ar
    42   26   45 1
    43   27   28 ar
    44   27   46 1
    45   28   29 ar
    46   28   30 1
    47   29   47 1
    48   30   31 1
    49   30   32 1
    50   30   33 1
    51   34   48 1
    52   34   49 1
    53   34   50 1
@<TRIPOS>MOLECULE
ZINC59146145
   42    45     0     0     0
SMALL
USER_CHARGES

@<TRIPOS>ATOM
      1 C1          0.1994    0.9979    0.1698 C.3       1 <0>        -0.1688
      2 C2          0.1746   -0.5252    0.3122 C.3       1 <0>         0.1415
      3 C3          0.8404   -0.9252    1.6303 C.3       1 <0>        -0.1690
      4 N1         -1.2135   -0.9939    0.3044 N.am      1 <0>        -0.5427
      5 C4         -1.7355   -1.8831   -0.6279 C.ar      1 <0>         0.1632
      6 C5         -1.1584   -2.5262   -1.7168 C.ar      1 <0>        -0.1488
      7 C6         -1.9129   -3.3772   -2.4992 C.ar      1 <0>        -0.0541
      8 C7         -3.2503   -3.6020   -2.2120 C.ar      1 <0>        -0.1250
      9 C8         -3.8419   -2.9733   -1.1347 C.ar      1 <0>        -0.0280
     10 C9         -3.0890   -2.1127   -0.3392 C.ar      1 <0>        -0.0889
     11 C10        -3.4046   -1.3023    0.8543 C.2       1 <0>        -0.0877
     12 C11        -4.6241   -1.2051    1.5107 C.2       1 <0>        -0.0250
     13 C12        -5.9612   -1.6951    1.1037 C.2       1 <0>         0.4875
     14 O1         -6.1478   -2.3521   -0.0637 O.3       1 <0>        -0.5937
     15 N2         -6.9386   -1.4678    1.9120 N.2       1 <0>        -0.6295
     16 C13        -6.7700   -0.8148    3.0798 C.2       1 <0>         0.4754
     17 N3         -7.6731   -0.5170    3.9924 N.2       1 <0>        -0.4977
     18 C14        -7.3322    0.2557    5.0614 C.ar      1 <0>         0.1493
     19 C15        -6.6575    1.4666    4.8679 C.ar      1 <0>        -0.1492
     20 C16        -6.3160    2.2425    5.9547 C.ar      1 <0>        -0.0921
     21 C17        -6.6385    1.8276    7.2358 C.ar      1 <0>        -0.1395
     22 C18        -7.3056    0.6319    7.4371 C.ar      1 <0>        -0.0958
     23 C19        -7.6600   -0.1544    6.3599 C.ar      1 <0>        -0.0458
     24 Cl1        -8.5037   -1.6502    6.6137 Cl        1 <0>        -0.0636
     25 S1         -5.0187   -0.4598    3.0883 S.3       1 <0>        -0.1774
     26 C20        -2.1435   -0.6235    1.2010 C.2       1 <0>         0.5613
     27 O2         -1.9746    0.1401    2.1338 O.2       1 <0>        -0.4820
     28 Br1        -4.2657   -4.7708   -3.2976 Br        1 <0>        -0.0547
     29 H1          1.2321    1.3466    0.1756 H         1 <0>         0.0714
     30 H2         -0.2750    1.2828   -0.7693 H         1 <0>         0.0595
     31 H3         -0.3412    1.4495    1.0016 H         1 <0>         0.0745
     32 H4          0.7152   -0.9768   -0.5196 H         1 <0>         0.0944
     33 H5          0.2998   -0.4736    2.4622 H         1 <0>         0.0746
     34 H6          0.8227   -2.0103    1.7318 H         1 <0>         0.0595
     35 H7          1.8732   -0.5765    1.6362 H         1 <0>         0.0714
     36 H8         -0.1175   -2.3593   -1.9515 H         1 <0>         0.1303
     37 H9         -1.4569   -3.8726   -3.3436 H         1 <0>         0.1347
     38 H10        -4.8838   -3.1474   -0.9102 H         1 <0>         0.1983
     39 H11        -6.4046    1.7919    3.8696 H         1 <0>         0.1299
     40 H12        -5.7950    3.1768    5.8067 H         1 <0>         0.1253
     41 H13        -6.3676    2.4405    8.0828 H         1 <0>         0.1264
     42 H14        -7.5531    0.3154    8.4396 H         1 <0>         0.1305
@<TRIPOS>BOND
     1    1    2 1
     2    1   29 1
     3    1   30 1
     4    1   31 1
     5    2    3 1
     6    2    4 1
     7    2   32 1
     8    3   33 1
     9    3   34 1
    10    3   35 1
    11    4   26 am
    12    4    5 1
    13    5   10 ar
    14    5    6 ar
    15    6    7 ar
    16    6   36 1
    17    7    8 ar
    18    7   37 1
    19    8    9 ar
    20    8   28 1
    21    9   10 ar
    22    9   38 1
    23   10   11 1
    24   11   12 2
    25   11   26 1
    26   12   25 1
    27   12   13 1
    28   13   14 1
    29   13   15 2
    30   15   16 1
    31   16   17 2
    32   16   25 1
    33   17   18 1
    34   18   23 ar
    35   18   19 ar
    36   19   20 ar
    37   19   39 1
    38   20   21 ar
    39   20   40 1
    40   21   22 ar
    41   21   41 1
    42   22   23 ar
    43   22   42 1
    44   23   24 1
    45   26   27 2
@<TRIPOS>MOLECULE
ZINC13410453
   54    58     0     0     0
SMALL
USER_CHARGES
4-fluoro-3-[(5-oxo-4-pentyl-[1,2,4]triazolo[4,5-a]quinazolin-1-yl)sulfanylmethyl]benzothiophene-2-carboxylic acid
@<TRIPOS>ATOM
      1 C1         12.3230   -3.6587   -0.5150 C.3       1 <0>        -0.1519
      2 C2         11.0547   -3.1004   -1.1638 C.3       1 <0>        -0.1252
      3 C3         11.2111   -1.5932   -1.3750 C.3       1 <0>        -0.1131
      4 C4          9.9428   -1.0349   -2.0238 C.3       1 <0>        -0.1366
      5 C5         10.0991    0.4724   -2.2351 C.3       1 <0>         0.1136
      6 N1          8.8848    1.0069   -2.8562 N.am      1 <0>        -0.5089
      7 C6          8.7919    1.0522   -4.2009 C.2       1 <0>         0.5720
      8 O1          9.7056    0.6539   -4.8981 O.2       1 <0>        -0.4982
      9 C7          7.5632    1.5925   -4.8110 C.ar      1 <0>        -0.1673
     10 C8          7.4130    1.6624   -6.1949 C.ar      1 <0>        -0.0251
     11 C9          6.2487    2.1738   -6.7285 C.ar      1 <0>        -0.1362
     12 C10         5.2320    2.6164   -5.8970 C.ar      1 <0>        -0.0498
     13 C11         5.3692    2.5521   -4.5244 C.ar      1 <0>        -0.1365
     14 C12         6.5330    2.0409   -3.9706 C.ar      1 <0>         0.1767
     15 N2          6.6946    1.9594   -2.5891 N.pl3     1 <0>        -0.4465
     16 C13         7.8489    1.4579   -2.0523 C.2       1 <0>         0.4462
     17 N3          7.7355    1.5026   -0.7437 N.2       1 <0>        -0.3085
     18 N4          6.4847    2.0492   -0.4332 N.2       1 <0>        -0.2807
     19 C14         5.8703    2.3225   -1.5583 C.2       1 <0>         0.2308
     20 S1          4.2628    3.0265   -1.7163 S.3       1 <0>         0.0274
     21 C15         3.7156    3.2599   -0.0026 C.3       1 <0>        -0.0552
     22 C16         2.3350    3.8639    0.0061 C.2       1 <0>        -0.1148
     23 C17         2.1782    5.2607    0.0091 C.ar      1 <0>        -0.0977
     24 C18         3.1900    6.2588    0.0044 C.ar      1 <0>         0.1349
     25 C19         2.8582    7.5882    0.0157 C.ar      1 <0>        -0.1619
     26 C20         1.5328    8.0044    0.0311 C.ar      1 <0>        -0.0825
     27 C21         0.5237    7.0632    0.0357 C.ar      1 <0>        -0.0808
     28 C22         0.8404    5.7214    0.0250 C.ar      1 <0>        -0.1195
     29 S2         -0.1122    4.2232    0.0264 S.3       1 <0>         0.1071
     30 C23         1.2390    3.0579    0.0067 C.2       1 <0>        -0.0803
     31 C24         1.1820    1.5913   -0.0007 C.2       1 <0>         0.5204
     32 O2          2.2106    0.9431   -0.0140 O.co2     1 <0>        -0.5868
     33 F1          4.4906    5.8936   -0.0109 F         1 <0>        -0.1304
     34 H1         12.4837   -3.1717    0.4468 H         1 <0>         0.0543
     35 H2         12.2116   -4.7325   -0.3645 H         1 <0>         0.0529
     36 H3         13.1771   -3.4696   -1.1652 H         1 <0>         0.0528
     37 H4         10.2006   -3.2895   -0.5135 H         1 <0>         0.0633
     38 H5         10.8940   -3.5874   -2.1256 H         1 <0>         0.0608
     39 H6         12.0652   -1.4041   -2.0253 H         1 <0>         0.0648
     40 H7         11.3718   -1.1062   -0.4132 H         1 <0>         0.0674
     41 H8          9.0887   -1.2240   -1.3736 H         1 <0>         0.0720
     42 H9          9.7821   -1.5219   -2.9856 H         1 <0>         0.0683
     43 H10        10.9533    0.6615   -2.8853 H         1 <0>         0.1015
     44 H11        10.2599    0.9594   -1.2732 H         1 <0>         0.0991
     45 H12         8.2037    1.3186   -6.8453 H         1 <0>         0.1497
     46 H13         6.1284    2.2297   -7.8004 H         1 <0>         0.1424
     47 H14         4.3248    3.0153   -6.3262 H         1 <0>         0.1451
     48 H15         4.5717    2.8989   -3.8839 H         1 <0>         0.1492
     49 H16         4.4073    3.9268    0.5120 H         1 <0>         0.1026
     50 H17         3.6937    2.2962    0.5063 H         1 <0>         0.1363
     51 H18         3.6443    8.3287    0.0122 H         1 <0>         0.1353
     52 H19         1.2938    9.0576    0.0391 H         1 <0>         0.1392
     53 H20        -0.5098    7.3763    0.0480 H         1 <0>         0.1352
     54 O3         -0.0110    0.9628    0.0073 O.co2     1 <0>        -0.7272
@<TRIPOS>BOND
     1    1    2 1
     2    1   34 1
     3    1   35 1
     4    1   36 1
     5    2    3 1
     6    2   37 1
     7    2   38 1
     8    3    4 1
     9    3   39 1
    10    3   40 1
    11    4    5 1
    12    4   41 1
    13    4   42 1
    14    5    6 1
    15    5   43 1
    16    5   44 1
    17    6   16 1
    18    6    7 am
    19    7    8 2
    20    7    9 1
    21    9   14 ar
    22    9   10 ar
    23   10   11 ar
    24   10   45 1
    25   11   12 ar
    26   11   46 1
    27   12   13 ar
    28   12   47 1
    29   13   14 ar
    30   13   48 1
    31   14   15 1
    32   15   19 1
    33   15   16 1
    34   16   17 2
    35   17   18 1
    36   18   19 2
    37   19   20 1
    38   20   21 1
    39   21   22 1
    40   21   49 1
    41   21   50 1
    42   22   30 2
    43   22   23 1
    44   23   28 ar
    45   23   24 ar
    46   24   25 ar
    47   24   33 1
    48   25   26 ar
    49   25   51 1
    50   26   27 ar
    51   26   52 1
    52   27   28 ar
    53   27   53 1
    54   28   29 1
    55   29   30 1
    56   30   31 1
    57   31   32 2
    58   31   54 1
@<TRIPOS>MOLECULE
ZINC34923259
   63    66     0     0     0
SMALL
USER_CHARGES

@<TRIPOS>ATOM
      1 C1          0.4484   -2.2436    0.7959 C.3       1 <0>        -0.1431
      2 C2          0.0911   -3.3027   -0.2488 C.3       1 <0>        -0.0770
      3 C3         -1.4015   -3.3209   -0.4557 C.2       1 <0>         0.2548
      4 C4         -1.9665   -2.5398   -1.4455 C.2       1 <0>        -0.3725
      5 C5         -3.4686   -2.5925   -1.6139 C.3       1 <0>         0.2683
      6 H1         -3.8558   -1.5811   -1.4902 H         1 <0>         0.0788
      7 N1         -4.2217   -3.4867   -0.6945 N.pl3     1 <0>        -0.5207
      8 C6         -5.5870   -3.6911   -0.6672 C.2       1 <0>         0.2309
      9 C7         -6.0736   -4.5520    0.2539 C.2       1 <0>        -0.2987
     10 S1         -4.5894   -5.0770    1.0882 S.3       1 <0>         0.1226
     11 C8         -3.4725   -4.1761    0.2175 C.2       1 <0>         0.3246
     12 N2         -2.1614   -4.0887    0.3081 N.2       1 <0>        -0.5911
     13 C9         -6.4793   -2.9967   -1.6061 C.2       1 <0>        -0.4507
     14 C10        -7.7860   -3.3201   -1.6578 C.2       1 <0>         0.4891
     15 O1         -8.3016   -4.2024   -0.7671 O.3       1 <0>        -0.6864
     16 N3         -8.6026   -2.7513   -2.6210 N.pl3     1 <0>        -0.6904
     17 C11        -9.9635   -3.0747   -2.6643 C.ar      1 <0>         0.1620
     18 C12       -10.6699   -3.2675   -1.4840 C.ar      1 <0>        -0.0796
     19 C13       -12.0127   -3.5867   -1.5278 C.ar      1 <0>        -0.1320
     20 C14       -12.6561   -3.7147   -2.7500 C.ar      1 <0>         0.0815
     21 C15       -11.9515   -3.5224   -3.9293 C.ar      1 <0>        -0.1884
     22 C16       -10.6100   -3.1975   -3.8875 C.ar      1 <0>        -0.1361
     23 O2        -13.9784   -4.0295   -2.7921 O.3       1 <0>        -0.3241
     24 C17       -14.5769   -4.1453   -4.0846 C.3       1 <0>         0.0311
     25 C18        -3.7621   -3.0275   -3.0266 C.ar      1 <0>        -0.0819
     26 C19        -3.8169   -4.3734   -3.3382 C.ar      1 <0>        -0.0734
     27 C20        -4.0861   -4.7723   -4.6338 C.ar      1 <0>        -0.1208
     28 C21        -4.3010   -3.8255   -5.6182 C.ar      1 <0>        -0.0858
     29 C22        -4.2471   -2.4801   -5.3064 C.ar      1 <0>        -0.1211
     30 C23        -3.9821   -2.0810   -4.0095 C.ar      1 <0>        -0.0689
     31 C24        -3.9285   -0.6141   -3.6685 C.3       1 <0>        -0.1194
     32 C25        -4.5935   -4.2605   -7.0311 C.3       1 <0>        -0.1088
     33 C26        -1.1749   -1.7262   -2.2651 C.2       1 <0>         0.5687
     34 O3         -1.0804   -0.5338   -2.0312 O.2       1 <0>        -0.5138
     35 O4         -0.5156   -2.2630   -3.3156 O.3       1 <0>        -0.3503
     36 C27         0.3578   -1.3979   -4.0441 C.3       1 <0>         0.0316
     37 H2          1.5280   -2.2304    0.9456 H         1 <0>         0.0586
     38 H3          0.1178   -1.2647    0.4487 H         1 <0>         0.0572
     39 H4         -0.0461   -2.4810    1.7378 H         1 <0>         0.0619
     40 H5          0.5857   -3.0653   -1.1907 H         1 <0>         0.0726
     41 H6          0.4217   -4.2816    0.0985 H         1 <0>         0.0859
     42 H7         -7.0967   -4.8454    0.4370 H         1 <0>         0.2367
     43 H8         -6.0875   -2.2271   -2.2546 H         1 <0>         0.0867
     44 H9         -8.2313   -2.1288   -3.2655 H         1 <0>         0.3951
     45 H10       -10.1690   -3.1682   -0.5324 H         1 <0>         0.1474
     46 H11       -12.5620   -3.7370   -0.6102 H         1 <0>         0.1246
     47 H12       -12.4533   -3.6226   -4.8804 H         1 <0>         0.1201
     48 H13       -10.0626   -3.0434   -4.8056 H         1 <0>         0.1173
     49 H14       -14.4846   -3.1970   -4.6140 H         1 <0>         0.0499
     50 H15       -14.0714   -4.9280   -4.6502 H         1 <0>         0.0504
     51 H16       -15.6313   -4.3993   -3.9753 H         1 <0>         0.0926
     52 H17        -3.6490   -5.1130   -2.5693 H         1 <0>         0.1068
     53 H18        -4.1282   -5.8236   -4.8774 H         1 <0>         0.1152
     54 H19        -4.4147   -1.7405   -6.0754 H         1 <0>         0.1158
     55 H20        -2.9157   -0.2420   -3.8225 H         1 <0>         0.0669
     56 H21        -4.6184   -0.0664   -4.3106 H         1 <0>         0.0654
     57 H22        -4.2129   -0.4729   -2.6258 H         1 <0>         0.0693
     58 H23        -5.6697   -4.3743   -7.1607 H         1 <0>         0.0668
     59 H24        -4.2212   -3.5088   -7.7271 H         1 <0>         0.0613
     60 H25        -4.1011   -5.2129   -7.2273 H         1 <0>         0.0621
     61 H26         0.7572   -1.9288   -4.9083 H         1 <0>         0.0937
     62 H27        -0.1962   -0.5215   -4.3803 H         1 <0>         0.0562
     63 H28         1.1787   -1.0836   -3.3995 H         1 <0>         0.0543
@<TRIPOS>BOND
     1    1    2 1
     2    1   37 1
     3    1   38 1
     4    1   39 1
     5    2    3 1
     6    2   40 1
     7    2   41 1
     8    3   12 1
     9    3    4 2
    10    4    5 1
    11    4   33 1
    12    5    6 1
    13    5    7 1
    14    5   25 1
    15    7   11 1
    16    7    8 1
    17    8    9 2
    18    8   13 1
    19    9   10 1
    20    9   42 1
    21   10   11 1
    22   11   12 2
    23   13   14 2
    24   13   43 1
    25   14   15 1
    26   14   16 1
    27   16   17 1
    28   16   44 1
    29   17   22 ar
    30   17   18 ar
    31   18   19 ar
    32   18   45 1
    33   19   20 ar
    34   19   46 1
    35   20   21 ar
    36   20   23 1
    37   21   22 ar
    38   21   47 1
    39   22   48 1
    40   23   24 1
    41   24   49 1
    42   24   50 1
    43   24   51 1
    44   25   30 ar
    45   25   26 ar
    46   26   27 ar
    47   26   52 1
    48   27   28 ar
    49   27   53 1
    50   28   29 ar
    51   28   32 1
    52   29   30 ar
    53   29   54 1
    54   30   31 1
    55   31   55 1
    56   31   56 1
    57   31   57 1
    58   32   58 1
    59   32   59 1
    60   32   60 1
    61   33   34 2
    62   33   35 1
    63   35   36 1
    64   36   61 1
    65   36   62 1
    66   36   63 1
@<TRIPOS>MOLECULE
ZINC36050294
   69    72     0     0     0
SMALL
USER_CHARGES

@<TRIPOS>ATOM
      1 C1         -0.1866    1.8262    0.5703 C.3       1 <0>        -0.1478
      2 C2         -0.6419    0.3875    0.8223 C.3       1 <0>         0.0669
      3 O1          0.1168   -0.1709    1.8968 O.3       1 <0>        -0.3503
      4 C3         -0.1636   -1.4453    2.2484 C.2       1 <0>         0.5356
      5 O2         -1.0305   -2.0642    1.6562 O.2       1 <0>        -0.5500
      6 C4          0.5419   -2.0547    3.2931 C.2       1 <0>        -0.3911
      7 C5          0.2092   -3.3205    3.7361 C.2       1 <0>         0.3027
      8 N1          0.8847   -3.8840    4.7244 N.2       1 <0>        -0.5963
      9 C6          1.8954   -3.3256    5.3580 C.2       1 <0>         0.3204
     10 N2          2.3802   -2.0798    5.0724 N.pl3     1 <0>        -0.5127
     11 C7          1.6975   -1.3518    3.9699 C.3       1 <0>         0.2605
     12 H1          2.4405   -1.1174    3.2076 H         1 <0>         0.0753
     13 C8          1.1854   -0.0488    4.5276 C.ar      1 <0>        -0.0328
     14 C9          0.4934   -0.0341    5.7247 C.ar      1 <0>        -0.1254
     15 C10         0.0224    1.1595    6.2390 C.ar      1 <0>        -0.0841
     16 C11         0.2418    2.3412    5.5574 C.ar      1 <0>        -0.2094
     17 C12         0.9357    2.3291    4.3564 C.ar      1 <0>         0.1214
     18 C13         1.4127    1.1305    3.8454 C.ar      1 <0>        -0.1002
     19 O3          1.1529    3.4901    3.6841 O.3       1 <0>        -0.3075
     20 C14         0.5404    4.6690    4.2106 C.3       1 <0>         0.1023
     21 C15         0.7894    5.8246    3.2760 C.ar      1 <0>        -0.0903
     22 C16         1.9639    6.5477    3.3685 C.ar      1 <0>        -0.0933
     23 C17         2.1923    7.6078    2.5112 C.ar      1 <0>        -0.1236
     24 C18         1.2464    7.9445    1.5611 C.ar      1 <0>        -0.1134
     25 C19         0.0723    7.2208    1.4679 C.ar      1 <0>        -0.1244
     26 C20        -0.1542    6.1580    2.3224 C.ar      1 <0>        -0.0967
     27 C21         3.4470   -1.6341    5.8272 C.2       1 <0>         0.2352
     28 C22         3.9261   -2.4592    6.7840 C.2       1 <0>        -0.3061
     29 S1          2.8599   -3.8768    6.6162 S.3       1 <0>         0.1437
     30 C23         4.0407   -0.3091    5.5976 C.2       1 <0>        -0.4706
     31 C24         5.1716    0.0424    6.2392 C.2       1 <0>         0.5026
     32 O4          5.8400   -0.8714    6.9843 O.3       1 <0>        -0.7052
     33 N3          5.6513    1.3373    6.1376 N.pl3     1 <0>        -0.7542
     34 C25         6.9375    1.6916    6.7430 C.3       1 <0>         0.1452
     35 C26         7.1724    3.1964    6.5975 C.3       1 <0>        -0.1096
     36 C27         6.0483    3.9585    7.3022 C.3       1 <0>        -0.1427
     37 C28         8.5149    3.5667    7.2311 C.3       1 <0>        -0.1419
     38 C29        -0.9311   -4.0640    3.0896 C.3       1 <0>        -0.1074
     39 H2          0.8716    1.8320    0.3092 H         1 <0>         0.0629
     40 H3         -0.7654    2.2522   -0.2493 H         1 <0>         0.0686
     41 H4         -0.3418    2.4196    1.4714 H         1 <0>         0.0658
     42 H5         -1.7002    0.3817    1.0834 H         1 <0>         0.0565
     43 H6         -0.4868   -0.2059   -0.0788 H         1 <0>         0.0573
     44 H7          0.3202   -0.9568    6.2586 H         1 <0>         0.1061
     45 H8         -0.5179    1.1684    7.1741 H         1 <0>         0.1175
     46 H9         -0.1270    3.2734    5.9592 H         1 <0>         0.1194
     47 H10         1.9574    1.1191    2.9129 H         1 <0>         0.1272
     48 H11        -0.5328    4.5072    4.3105 H         1 <0>         0.0670
     49 H12         0.9665    4.8941    5.1883 H         1 <0>         0.0684
     50 H13         2.7029    6.2847    4.1108 H         1 <0>         0.1248
     51 H14         3.1096    8.1732    2.5840 H         1 <0>         0.1236
     52 H15         1.4245    8.7731    0.8917 H         1 <0>         0.1218
     53 H16        -0.6669    7.4840    0.7258 H         1 <0>         0.1231
     54 H17        -1.0699    5.5903    2.2472 H         1 <0>         0.1230
     55 H18         4.7436   -2.3007    7.4718 H         1 <0>         0.2312
     56 H19         3.5702    0.3825    4.9145 H         1 <0>         0.0906
     57 H20         5.1358    2.0098    5.6656 H         1 <0>         0.3842
     58 H21         6.9269    1.4261    7.8001 H         1 <0>         0.0543
     59 H22         7.7377    1.1486    6.2400 H         1 <0>         0.0441
     60 H23         7.1841    3.4618    5.5403 H         1 <0>         0.0682
     61 H24         6.0366    3.6932    8.3593 H         1 <0>         0.0540
     62 H25         6.2157    5.0306    7.1985 H         1 <0>         0.0481
     63 H26         5.0919    3.6948    6.8508 H         1 <0>         0.0562
     64 H27         9.3049    2.9595    6.7893 H         1 <0>         0.0551
     65 H28         8.7232    4.6213    7.0508 H         1 <0>         0.0522
     66 H29         8.4729    3.3831    8.3047 H         1 <0>         0.0553
     67 H30        -0.5742   -4.5657    2.1902 H         1 <0>         0.0814
     68 H31        -1.3240   -4.8041    3.7868 H         1 <0>         0.0638
     69 H32        -1.7198   -3.3601    2.8243 H         1 <0>         0.1036
@<TRIPOS>BOND
     1    1    2 1
     2    1   39 1
     3    1   40 1
     4    1   41 1
     5    2    3 1
     6    2   42 1
     7    2   43 1
     8    3    4 1
     9    4    5 2
    10    4    6 1
    11    6   11 1
    12    6    7 2
    13    7    8 1
    14    7   38 1
    15    8    9 2
    16    9   29 1
    17    9   10 1
    18   10   11 1
    19   10   27 1
    20   11   12 1
    21   11   13 1
    22   13   18 ar
    23   13   14 ar
    24   14   15 ar
    25   14   44 1
    26   15   16 ar
    27   15   45 1
    28   16   17 ar
    29   16   46 1
    30   17   18 ar
    31   17   19 1
    32   18   47 1
    33   19   20 1
    34   20   21 1
    35   20   48 1
    36   20   49 1
    37   21   26 ar
    38   21   22 ar
    39   22   23 ar
    40   22   50 1
    41   23   24 ar
    42   23   51 1
    43   24   25 ar
    44   24   52 1
    45   25   26 ar
    46   25   53 1
    47   26   54 1
    48   27   28 2
    49   27   30 1
    50   28   29 1
    51   28   55 1
    52   30   31 2
    53   30   56 1
    54   31   32 1
    55   31   33 1
    56   33   34 1
    57   33   57 1
    58   34   35 1
    59   34   58 1
    60   34   59 1
    61   35   36 1
    62   35   37 1
    63   35   60 1
    64   36   61 1
    65   36   62 1
    66   36   63 1
    67   37   64 1
    68   37   65 1
    69   37   66 1
    70   38   67 1
    71   38   68 1
    72   38   69 1
@<TRIPOS>MOLECULE
ZINC36550174
   69    73     0     0     0
SMALL
USER_CHARGES

@<TRIPOS>ATOM
      1 C1          6.1470   -2.7774   -6.0417 C.3       1 <0>        -0.1524
      2 C2          5.2483   -3.6294   -5.1432 C.3       1 <0>        -0.1179
      3 C3          3.8940   -3.8354   -5.8246 C.3       1 <0>        -0.0474
      4 H1          4.0472   -4.2620   -6.8159 H         1 <0>         0.0742
      5 C4          3.1780   -2.4895   -5.9537 C.3       1 <0>        -0.1439
      6 C5          3.0535   -4.7743   -4.9981 C.ar      1 <0>        -0.0866
      7 C6          2.7216   -4.4402   -3.6980 C.ar      1 <0>        -0.1085
      8 C7          1.9514   -5.2986   -2.9381 C.ar      1 <0>        -0.0893
      9 C8          1.5104   -6.4981   -3.4808 C.ar      1 <0>         0.1582
     10 C9          1.8453   -6.8307   -4.7865 C.ar      1 <0>        -0.1021
     11 C10         2.6110   -5.9656   -5.5433 C.ar      1 <0>        -0.1120
     12 N1          0.7292   -7.3713   -2.7121 N.am      1 <0>        -0.5317
     13 C11        -0.5493   -7.6103   -3.0742 C.2       1 <0>         0.5662
     14 O1         -1.0338   -7.0796   -4.0569 O.2       1 <0>        -0.5205
     15 C12        -1.3383   -8.5334   -2.2428 C.2       1 <0>        -0.2966
     16 C13        -2.6601   -8.8337   -2.5454 C.2       1 <0>         0.1060
     17 C14        -3.3334   -8.1141   -3.5529 C.2       1 <0>        -0.2057
     18 C15        -3.3201   -6.7431   -3.7473 C.2       1 <0>         0.1765
     19 N2         -4.0827   -6.4320   -4.8106 N.pl3     1 <0>        -0.4614
     20 C16        -4.6339   -7.5690   -5.3682 C.ar      1 <0>         0.0795
     21 C17        -4.1912   -8.6703   -4.6193 C.ar      1 <0>        -0.0592
     22 C18        -4.5911   -9.9570   -4.9643 C.ar      1 <0>        -0.0798
     23 C19        -5.4221  -10.1461   -6.0483 C.ar      1 <0>        -0.1368
     24 C20        -5.8581   -9.0602   -6.7920 C.ar      1 <0>        -0.1118
     25 C21        -5.4753   -7.7793   -6.4556 C.ar      1 <0>        -0.1208
     26 C22        -4.2998   -5.0717   -5.3092 C.3       1 <0>         0.1114
     27 C23        -5.5928   -4.5106   -4.7142 C.3       1 <0>         0.0444
     28 O2         -5.8045   -3.1837   -5.2006 O.3       1 <0>        -0.3113
     29 C24        -6.9179   -2.5373   -4.7653 C.ar      1 <0>         0.1353
     30 C25        -7.7859   -3.1652   -3.8835 C.ar      1 <0>        -0.2126
     31 C26        -8.9166   -2.5059   -3.4423 C.ar      1 <0>        -0.0750
     32 C27        -9.1839   -1.2212   -3.8786 C.ar      1 <0>        -0.1590
     33 C28        -8.3209   -0.5936   -4.7575 C.ar      1 <0>        -0.0485
     34 C29        -7.1855   -1.2467   -5.1974 C.ar      1 <0>        -0.1528
     35 C30        -8.6154    0.8063   -5.2313 C.3       1 <0>        -0.1154
     36 C31        -0.6605   -9.1260   -1.0726 C.2       1 <0>         0.5424
     37 N3          0.6196   -8.7919   -0.8391 N.2       1 <0>        -0.6704
     38 C32         1.2742   -7.9675   -1.6177 C.2       1 <0>         0.6349
     39 O3          2.5576   -7.6901   -1.3149 O.3       1 <0>        -0.6487
     40 O4         -1.2485   -9.8998   -0.3356 O.2       1 <0>        -0.5473
     41 H2          7.1118   -2.6306   -5.5563 H         1 <0>         0.0520
     42 H3          6.2934   -3.2849   -6.9952 H         1 <0>         0.0519
     43 H4          5.6759   -1.8096   -6.2139 H         1 <0>         0.0550
     44 H5          5.7194   -4.5971   -4.9710 H         1 <0>         0.0647
     45 H6          5.1018   -3.1218   -4.1897 H         1 <0>         0.0641
     46 H7          3.7859   -1.8104   -6.5515 H         1 <0>         0.0565
     47 H8          2.2132   -2.6363   -6.4391 H         1 <0>         0.0540
     48 H9          3.0248   -2.0629   -4.9624 H         1 <0>         0.0562
     49 H10         3.0652   -3.5072   -3.2763 H         1 <0>         0.1202
     50 H11         1.6928   -5.0373   -1.9226 H         1 <0>         0.1208
     51 H12         1.5039   -7.7632   -5.2113 H         1 <0>         0.1167
     52 H13         2.8682   -6.2218   -6.5605 H         1 <0>         0.1193
     53 H14        -3.1720   -9.6187   -2.0086 H         1 <0>         0.1421
     54 H15        -2.7802   -6.0328   -3.1387 H         1 <0>         0.1715
     55 H16        -4.2521  -10.8039   -4.3862 H         1 <0>         0.1244
     56 H17        -5.7344  -11.1438   -6.3192 H         1 <0>         0.1223
     57 H18        -6.5088   -9.2188   -7.6393 H         1 <0>         0.1225
     58 H19        -5.8194   -6.9407   -7.0427 H         1 <0>         0.1157
     59 H20        -3.4612   -4.4396   -5.0172 H         1 <0>         0.1065
     60 H21        -4.3786   -5.0914   -6.3962 H         1 <0>         0.1005
     61 H22        -6.4314   -5.1427   -5.0062 H         1 <0>         0.0709
     62 H23        -5.5139   -4.4909   -3.6272 H         1 <0>         0.0710
     63 H24        -7.5778   -4.1687   -3.5428 H         1 <0>         0.1271
     64 H25        -9.5927   -2.9944   -2.7562 H         1 <0>         0.1256
     65 H26       -10.0685   -0.7074   -3.5324 H         1 <0>         0.1234
     66 H27        -6.5092   -0.7543   -5.8805 H         1 <0>         0.1307
     67 H28        -8.1552    1.5241   -4.5524 H         1 <0>         0.0738
     68 H29        -8.2104    0.9433   -6.2340 H         1 <0>         0.0685
     69 H30        -9.6938    0.9640   -5.2504 H         1 <0>         0.0688
@<TRIPOS>BOND
     1    1    2 1
     2    1   41 1
     3    1   42 1
     4    1   43 1
     5    2    3 1
     6    2   44 1
     7    2   45 1
     8    3    4 1
     9    3    5 1
    10    3    6 1
    11    5   46 1
    12    5   47 1
    13    5   48 1
    14    6   11 ar
    15    6    7 ar
    16    7    8 ar
    17    7   49 1
    18    8    9 ar
    19    8   50 1
    20    9   10 ar
    21    9   12 1
    22   10   11 ar
    23   10   51 1
    24   11   52 1
    25   12   38 1
    26   12   13 am
    27   13   14 2
    28   13   15 1
    29   15   16 2
    30   15   36 1
    31   16   17 1
    32   16   53 1
    33   17   21 1
    34   17   18 2
    35   18   19 1
    36   18   54 1
    37   19   20 1
    38   19   26 1
    39   20   25 ar
    40   20   21 ar
    41   21   22 ar
    42   22   23 ar
    43   22   55 1
    44   23   24 ar
    45   23   56 1
    46   24   25 ar
    47   24   57 1
    48   25   58 1
    49   26   27 1
    50   26   59 1
    51   26   60 1
    52   27   28 1
    53   27   61 1
    54   27   62 1
    55   28   29 1
    56   29   34 ar
    57   29   30 ar
    58   30   31 ar
    59   30   63 1
    60   31   32 ar
    61   31   64 1
    62   32   33 ar
    63   32   65 1
    64   33   34 ar
    65   33   35 1
    66   34   66 1
    67   35   67 1
    68   35   68 1
    69   35   69 1
    70   36   37 1
    71   36   40 2
    72   37   38 2
    73   38   39 1
@<TRIPOS>MOLECULE
ZINC44320314
   64    68     0     0     0
SMALL
USER_CHARGES

@<TRIPOS>ATOM
      1 C1         -2.8816   -0.7253    6.8437 C.3       1 <0>         0.0273
      2 O1         -1.8838    0.0877    6.2227 O.3       1 <0>        -0.3191
      3 C2         -0.7924   -0.5497    5.7212 C.ar      1 <0>         0.0901
      4 C3         -0.6885   -1.9293    5.8205 C.ar      1 <0>        -0.1684
      5 C4          0.4201   -2.5768    5.3112 C.ar      1 <0>        -0.1522
      6 C5          1.4296   -1.8473    4.7003 C.ar      1 <0>         0.0931
      7 C6          1.3256   -0.4676    4.6010 C.ar      1 <0>        -0.1079
      8 C7          0.2143    0.1792    5.1054 C.ar      1 <0>        -0.1144
      9 O2          2.5212   -2.4846    4.1992 O.3       1 <0>        -0.2578
     10 C8          2.5775   -3.8376    4.3117 C.ar      1 <0>         0.0815
     11 C9          2.0548   -4.6409    3.3079 C.ar      1 <0>        -0.1366
     12 C10         2.1138   -6.0159    3.4245 C.ar      1 <0>        -0.1047
     13 C11         2.6930   -6.5922    4.5403 C.ar      1 <0>        -0.1108
     14 C12         3.2140   -5.7943    5.5418 C.ar      1 <0>        -0.0530
     15 C13         3.1627   -4.4184    5.4275 C.ar      1 <0>        -0.1199
     16 C14         3.8435   -6.4259    6.7567 C.3       1 <0>        -0.0780
     17 C15         5.3369   -6.6415    6.5034 C.3       1 <0>         0.1008
     18 H1          5.7972   -5.6958    6.2174 H         1 <0>         0.0873
     19 C16         5.9899   -7.1585    7.7593 C.2       1 <0>         0.4914
     20 O3          6.0589   -8.3590    7.9607 O.co2     1 <0>        -0.6847
     21 O4          6.4492   -6.3763    8.5739 O.co2     1 <0>        -0.6878
     22 N1          5.5133   -7.6165    5.4243 N.am      1 <0>        -0.6708
     23 C17         6.6413   -7.6085    4.6866 C.2       1 <0>         0.6479
     24 O5          7.5118   -6.7926    4.9166 O.2       1 <0>        -0.5720
     25 O6          6.8034   -8.5046    3.6949 O.3       1 <0>        -0.3690
     26 C18         8.0235   -8.4384    2.9539 C.3       1 <0>         0.1077
     27 C19         8.0264   -9.5263    1.8781 C.3       1 <0>        -0.0073
     28 C20         8.1158  -10.8899    2.5183 C.ar      1 <0>        -0.0795
     29 C21         7.2898  -11.5547    3.3996 C.ar      1 <0>        -0.0828
     30 C22         7.6207  -12.8259    3.8345 C.ar      1 <0>        -0.1103
     31 C23         8.7803  -13.4323    3.3863 C.ar      1 <0>        -0.1200
     32 C24         9.6126  -12.7745    2.5046 C.ar      1 <0>        -0.0988
     33 C25         9.2852  -11.4918    2.0615 C.ar      1 <0>        -0.0638
     34 C26         9.9845  -10.5706    1.1318 C.ar      1 <0>        -0.0457
     35 C27         9.2520   -9.3931    1.0078 C.ar      1 <0>        -0.0848
     36 C28         9.7023   -8.3765    0.1926 C.ar      1 <0>        -0.0941
     37 C29        10.8869   -8.5232   -0.5075 C.ar      1 <0>        -0.1154
     38 C30        11.6214   -9.6895   -0.3911 C.ar      1 <0>        -0.1170
     39 C31        11.1786  -10.7116    0.4226 C.ar      1 <0>        -0.0990
     40 H2         -2.4421   -1.2601    7.6857 H         1 <0>         0.0552
     41 H3         -3.6954   -0.0935    7.1994 H         1 <0>         0.0986
     42 H4         -3.2682   -1.4425    6.1196 H         1 <0>         0.0538
     43 H5         -1.4742   -2.4971    6.2965 H         1 <0>         0.1306
     44 H6          0.5012   -3.6510    5.3888 H         1 <0>         0.1330
     45 H7          2.1116    0.1005    4.1257 H         1 <0>         0.1397
     46 H8          0.1310    1.2529    5.0239 H         1 <0>         0.1380
     47 H9          1.6021   -4.1913    2.4366 H         1 <0>         0.1260
     48 H10         1.7069   -6.6415    2.6438 H         1 <0>         0.1279
     49 H11         2.7381   -7.6676    4.6295 H         1 <0>         0.1265
     50 H12         3.5742   -3.7955    6.2080 H         1 <0>         0.1329
     51 H13         3.7119   -5.7694    7.6168 H         1 <0>         0.0940
     52 H14         3.3664   -7.3855    6.9557 H         1 <0>         0.0829
     53 H15         4.8184   -8.2679    5.2407 H         1 <0>         0.3965
     54 H16         8.1089   -7.4599    2.4813 H         1 <0>         0.0717
     55 H17         8.8666   -8.5914    3.6276 H         1 <0>         0.0703
     56 H18         7.1247   -9.4546    1.2699 H         1 <0>         0.1123
     57 H19         6.3841  -11.0828    3.7509 H         1 <0>         0.1321
     58 H20         6.9728  -13.3453    4.5251 H         1 <0>         0.1284
     59 H21         9.0353  -14.4244    3.7284 H         1 <0>         0.1249
     60 H22        10.5173  -13.2515    2.1574 H         1 <0>         0.1203
     61 H23         9.1301   -7.4652    0.1001 H         1 <0>         0.1269
     62 H24        11.2382   -7.7261   -1.1459 H         1 <0>         0.1275
     63 H25        12.5451   -9.8004   -0.9397 H         1 <0>         0.1257
     64 H26        11.7552  -11.6205    0.5106 H         1 <0>         0.1227
@<TRIPOS>BOND
     1    1    2 1
     2    1   40 1
     3    1   41 1
     4    1   42 1
     5    2    3 1
     6    3    8 ar
     7    3    4 ar
     8    4    5 ar
     9    4   43 1
    10    5    6 ar
    11    5   44 1
    12    6    7 ar
    13    6    9 1
    14    7    8 ar
    15    7   45 1
    16    8   46 1
    17    9   10 1
    18   10   15 ar
    19   10   11 ar
    20   11   12 ar
    21   11   47 1
    22   12   13 ar
    23   12   48 1
    24   13   14 ar
    25   13   49 1
    26   14   15 ar
    27   14   16 1
    28   15   50 1
    29   16   17 1
    30   16   51 1
    31   16   52 1
    32   17   18 1
    33   17   19 1
    34   17   22 1
    35   19   20 2
    36   19   21 1
    37   22   23 am
    38   22   53 1
    39   23   24 2
    40   23   25 1
    41   25   26 1
    42   26   27 1
    43   26   54 1
    44   26   55 1
    45   27   35 1
    46   27   28 1
    47   27   56 1
    48   28   33 ar
    49   28   29 ar
    50   29   30 ar
    51   29   57 1
    52   30   31 ar
    53   30   58 1
    54   31   32 ar
    55   31   59 1
    56   32   33 ar
    57   32   60 1
    58   33   34 1
    59   34   39 ar
    60   34   35 ar
    61   35   36 ar
    62   36   37 ar
    63   36   61 1
    64   37   38 ar
    65   37   62 1
    66   38   39 ar
    67   38   63 1
    68   39   64 1
@<TRIPOS>MOLECULE
ZINC33672815
   52    54     0     0     0
SMALL
USER_CHARGES

@<TRIPOS>ATOM
      1 C1         -1.6347    1.3805    0.1578 C.3       1 <0>        -0.1088
      2 C2         -1.5086   -0.1212    0.1490 C.2       1 <0>         0.1477
      3 C3         -1.1776   -0.7724    1.2727 C.2       1 <0>        -0.0830
      4 N1         -1.0639   -2.1270    1.2648 N.2       1 <0>        -0.4690
      5 C4         -0.7401   -2.7640    2.3639 C.2       1 <0>         0.4957
      6 N2         -0.5118   -4.0674    2.8149 N.2       1 <0>        -0.6267
      7 C5         -0.1821   -4.1947    4.1298 C.2       1 <0>         0.5616
      8 S1         -0.3519   -2.4256    4.0657 S.3       1 <0>        -0.6041
      9 N3          0.1255   -5.1760    5.0326 N.2       1 <0>        -0.5537
     10 C6          0.2340   -4.8662    6.3930 C.ar      1 <0>         0.2387
     11 C7         -0.3812   -3.7278    6.8966 C.ar      1 <0>        -0.3043
     12 C8         -0.2741   -3.4203    8.2438 C.ar      1 <0>         0.1747
     13 C9          0.4488   -4.2520    9.0908 C.ar      1 <0>        -0.0261
     14 C10         1.0639   -5.3916    8.5860 C.ar      1 <0>         0.1675
     15 C11         0.9520   -5.7004    7.2396 C.ar      1 <0>        -0.2514
     16 O1          1.7718   -6.2057    9.4139 O.3       1 <0>        -0.3074
     17 C12         2.3775   -7.3594    8.8272 C.3       1 <0>         0.0267
     18 O2          0.5548   -3.9503   10.4143 O.3       1 <0>        -0.3108
     19 C13        -0.4486   -4.4803   11.2828 C.3       1 <0>         0.0341
     20 O3         -0.8759   -2.3049    8.7367 O.3       1 <0>        -0.3086
     21 C14        -1.6020   -1.4958    7.8092 C.3       1 <0>         0.0281
     22 N4         -1.7354   -0.8301   -1.0232 N.pl3     1 <0>        -0.7317
     23 C15        -2.0972   -0.1183   -2.2515 C.3       1 <0>         0.1670
     24 C16        -2.2865   -1.1104   -3.3699 C.ar      1 <0>        -0.0850
     25 C17        -1.2129   -1.4705   -4.1632 C.ar      1 <0>        -0.0820
     26 C18        -1.3853   -2.3799   -5.1895 C.ar      1 <0>        -0.1000
     27 C19        -2.6326   -2.9309   -5.4233 C.ar      1 <0>        -0.0264
     28 C20        -3.7075   -2.5706   -4.6287 C.ar      1 <0>        -0.0326
     29 C21        -3.5320   -1.6640   -3.5984 C.ar      1 <0>        -0.0788
     30 Cl1        -5.2735   -3.2606   -4.9211 Cl        1 <0>        -0.0479
     31 Cl2        -2.8498   -4.0728   -6.7126 Cl        1 <0>        -0.0495
     32 H1         -0.6704    1.8275   -0.0839 H         1 <0>         0.0722
     33 H2         -2.3733    1.6874   -0.5828 H         1 <0>         0.0666
     34 H3         -1.9517    1.7128    1.1464 H         1 <0>         0.0755
     35 H4         -1.0013   -0.2210    2.1844 H         1 <0>         0.0991
     36 H5         -0.9429   -3.0816    6.2384 H         1 <0>         0.1437
     37 H6          1.4265   -6.5881    6.8480 H         1 <0>         0.1343
     38 H7          2.9099   -7.9205    9.5952 H         1 <0>         0.0951
     39 H8          1.6058   -7.9901    8.3858 H         1 <0>         0.0561
     40 H9          3.0787   -7.0477    8.0532 H         1 <0>         0.0568
     41 H10        -1.4271   -4.1110   10.9757 H         1 <0>         0.0385
     42 H11        -0.4378   -5.5689   11.2288 H         1 <0>         0.0388
     43 H12        -0.2463   -4.1653   12.3065 H         1 <0>         0.0826
     44 H13        -2.0310   -0.6405    8.3313 H         1 <0>         0.0948
     45 H14        -0.9277   -1.1440    7.0284 H         1 <0>         0.0618
     46 H15        -2.4012   -2.0857    7.3604 H         1 <0>         0.0530
     47 H16        -1.6542   -1.7967   -1.0289 H         1 <0>         0.4114
     48 H17        -3.0247    0.4318   -2.0928 H         1 <0>         0.0669
     49 H18        -1.3019    0.5789   -2.5150 H         1 <0>         0.0683
     50 H19        -0.2390   -1.0406   -3.9809 H         1 <0>         0.1414
     51 H20        -0.5464   -2.6603   -5.8092 H         1 <0>         0.1446
     52 H21        -4.3693   -1.3856   -2.9756 H         1 <0>         0.1445
@<TRIPOS>BOND
     1    1    2 1
     2    1   32 1
     3    1   33 1
     4    1   34 1
     5    2    3 2
     6    2   22 1
     7    3    4 1
     8    3   35 1
     9    4    5 2
    10    5    8 1
    11    5    6 1
    12    6    7 2
    13    7    8 1
    14    7    9 1
    15    9   10 1
    16   10   15 ar
    17   10   11 ar
    18   11   12 ar
    19   11   36 1
    20   12   13 ar
    21   12   20 1
    22   13   14 ar
    23   13   18 1
    24   14   15 ar
    25   14   16 1
    26   15   37 1
    27   16   17 1
    28   17   38 1
    29   17   39 1
    30   17   40 1
    31   18   19 1
    32   19   41 1
    33   19   42 1
    34   19   43 1
    35   20   21 1
    36   21   44 1
    37   21   45 1
    38   21   46 1
    39   22   23 1
    40   22   47 1
    41   23   24 1
    42   23   48 1
    43   23   49 1
    44   24   29 ar
    45   24   25 ar
    46   25   26 ar
    47   25   50 1
    48   26   27 ar
    49   26   51 1
    50   27   28 ar
    51   27   31 1
    52   28   29 ar
    53   28   30 1
    54   29   52 1
@<TRIPOS>MOLECULE
ZINC13459162
   35    37     0     0     0
SMALL
USER_CHARGES
2-((N'E)-N'-(2-naphthylmethylene)hydrazino)benzoic acid
@<TRIPOS>ATOM
      1 C1         -0.0043    1.0733   -0.1453 C.ar      1 <0>        -0.1209
      2 C2         -1.2271    1.7418   -0.1323 C.ar      1 <0>        -0.1225
      3 C3         -1.2813    3.1012   -0.1015 C.ar      1 <0>        -0.1025
      4 C4         -0.0877    3.8455   -0.0935 C.ar      1 <0>        -0.0496
      5 C5         -0.1081    5.2478   -0.0669 C.ar      1 <0>        -0.0916
      6 C6          1.0891    5.9466   -0.0593 C.ar      1 <0>        -0.0158
      7 C7          2.3172    5.2589   -0.0780 C.ar      1 <0>        -0.0861
      8 C8          2.3546    3.9028   -0.1038 C.ar      1 <0>        -0.1124
      9 C9          1.1563    3.1650   -0.1122 C.ar      1 <0>        -0.0502
     10 C10         1.1709    1.7606   -0.1383 C.ar      1 <0>        -0.1065
     11 C11         1.0760    7.4200   -0.0309 C.2       1 <0>         0.0505
     12 N1          2.1948    8.0793   -0.0237 N.2       1 <0>        -0.2265
     13 N2          2.1824    9.4800    0.0033 N.pl3     1 <0>        -0.5532
     14 C12         3.3776   10.1842    0.0110 C.ar      1 <0>         0.2390
     15 C13         4.5877    9.5065    0.1065 C.ar      1 <0>        -0.1842
     16 C14         5.7748   10.2089    0.1081 C.ar      1 <0>        -0.0847
     17 C15         5.7721   11.5930    0.0266 C.ar      1 <0>        -0.1867
     18 C16         4.5835   12.2832   -0.0629 C.ar      1 <0>        -0.0370
     19 C17         3.3716   11.5866   -0.0717 C.ar      1 <0>        -0.1828
     20 C18         2.0968   12.3182   -0.1667 C.2       1 <0>         0.5018
     21 O1          1.0439   11.7193   -0.0698 O.co2     1 <0>        -0.6403
     22 H1          0.0112   -0.0064   -0.1658 H         1 <0>         0.1197
     23 H2         -2.1449    1.1726   -0.1429 H         1 <0>         0.1205
     24 H3         -2.2359    3.6062   -0.0872 H         1 <0>         0.1268
     25 H4         -1.0486    5.7786   -0.0529 H         1 <0>         0.1330
     26 H5          3.2414    5.8178   -0.0718 H         1 <0>         0.1338
     27 H6          3.3046    3.3893   -0.1176 H         1 <0>         0.1274
     28 H7          2.1105    1.2283   -0.1531 H         1 <0>         0.1248
     29 H8          0.1359    7.9515   -0.0161 H         1 <0>         0.1170
     30 H9          1.3381    9.9573    0.0166 H         1 <0>         0.4163
     31 H10         4.5985    8.4287    0.1752 H         1 <0>         0.1252
     32 H11         6.7124    9.6775    0.1783 H         1 <0>         0.1150
     33 H12         6.7074   12.1330    0.0336 H         1 <0>         0.1145
     34 H13         4.5878   13.3613   -0.1258 H         1 <0>         0.1315
     35 O2          2.0981   13.6519   -0.3611 O.co2     1 <0>        -0.7432
@<TRIPOS>BOND
     1    1   10 ar
     2    1    2 ar
     3    1   22 1
     4    2    3 ar
     5    2   23 1
     6    3    4 ar
     7    3   24 1
     8    4    9 ar
     9    4    5 ar
    10    5    6 ar
    11    5   25 1
    12    6    7 ar
    13    6   11 1
    14    7    8 ar
    15    7   26 1
    16    8    9 ar
    17    8   27 1
    18    9   10 ar
    19   10   28 1
    20   11   12 2
    21   11   29 1
    22   12   13 1
    23   13   14 1
    24   13   30 1
    25   14   19 ar
    26   14   15 ar
    27   15   16 ar
    28   15   31 1
    29   16   17 ar
    30   16   32 1
    31   17   18 ar
    32   17   33 1
    33   18   19 ar
    34   18   34 1
    35   19   20 1
    36   20   21 2
    37   20   35 1
@<TRIPOS>MOLECULE
ZINC20879204
   36    38     0     0     0
SMALL
USER_CHARGES
2-chloro-5-[[5-(2-chlorophenyl)-2-furyl]methylamino]benzoic acid
@<TRIPOS>ATOM
      1 C1          3.1441    4.9418    0.9189 C.ar      1 <0>        -0.1150
      2 C2          2.6213    5.8448    0.0100 C.ar      1 <0>        -0.0985
      3 C3          1.6630    5.4415   -0.9023 C.ar      1 <0>        -0.1101
      4 C4          1.2265    4.1314   -0.9156 C.ar      1 <0>        -0.0146
      5 C5          1.7462    3.2166    0.0031 C.ar      1 <0>        -0.0093
      6 C6          2.7127    3.6315    0.9209 C.ar      1 <0>        -0.0839
      7 C7          1.2794    1.8144   -0.0004 C.2       1 <0>         0.0174
      8 C8         -0.0170    1.4052    0.0098 C.2       1 <0>        -0.1713
      9 C9          0.0021   -0.0041    0.0020 C.2       1 <0>        -0.1847
     10 C10         1.2955   -0.3811   -0.0124 C.2       1 <0>        -0.0143
     11 O1          2.0644    0.7201   -0.0138 O.3       1 <0>        -0.1586
     12 C11         1.7962   -1.8024   -0.0240 C.3       1 <0>         0.2132
     13 N1          1.9451   -2.2564   -1.4089 N.pl3     1 <0>        -0.7606
     14 C12         2.3993   -3.5513   -1.6750 C.ar      1 <0>         0.2004
     15 C13         2.7151   -4.4064   -0.6249 C.ar      1 <0>        -0.1944
     16 C14         3.1591   -5.6893   -0.8813 C.ar      1 <0>        -0.0864
     17 C15         3.3032   -6.1281   -2.1835 C.ar      1 <0>        -0.0576
     18 C16         2.9939   -5.2744   -3.2459 C.ar      1 <0>        -0.0634
     19 C17         2.5399   -3.9803   -2.9850 C.ar      1 <0>        -0.1347
     20 C18         3.1461   -5.7397   -4.6390 C.2       1 <0>         0.4842
     21 O2          3.5413   -6.8662   -4.8634 O.co2     1 <0>        -0.6037
     22 O3          2.8467   -4.9147   -5.6611 O.co2     1 <0>        -0.7569
     23 Cl1         3.8677   -7.7389   -2.4999 Cl        1 <0>        -0.0586
     24 Cl2         0.0298    3.6244   -2.0666 Cl        1 <0>        -0.0519
     25 H1          3.8921    5.2636    1.6284 H         1 <0>         0.1348
     26 H2          2.9628    6.8694    0.0131 H         1 <0>         0.1360
     27 H3          1.2588    6.1514   -1.6087 H         1 <0>         0.1398
     28 H4          3.1216    2.9283    1.6312 H         1 <0>         0.1364
     29 H5         -0.8924    2.0377    0.0176 H         1 <0>         0.1507
     30 H6         -0.8574   -0.6580    0.0062 H         1 <0>         0.1542
     31 H7          2.7701   -1.8522    0.4849 H         1 <0>         0.0723
     32 H8          1.0760   -2.4492    0.4985 H         1 <0>         0.0886
     33 H9          1.6995   -1.5783   -2.2394 H         1 <0>         0.4224
     34 H10         2.6091   -4.0676    0.3952 H         1 <0>         0.1190
     35 H11         3.3985   -6.3500   -0.0612 H         1 <0>         0.1238
     36 H12         2.2995   -3.3156   -3.8015 H         1 <0>         0.1353
@<TRIPOS>BOND
     1    1    6 ar
     2    1    2 ar
     3    1   25 1
     4    2    3 ar
     5    2   26 1
     6    3    4 ar
     7    3   27 1
     8    4    5 ar
     9    4   24 1
    10    5    6 ar
    11    5    7 1
    12    6   28 1
    13    7   11 1
    14    7    8 2
    15    8    9 1
    16    8   29 1
    17    9   10 2
    18    9   30 1
    19   10   11 1
    20   10   12 1
    21   12   13 1
    22   12   31 1
    23   12   32 1
    24   13   14 1
    25   13   33 1
    26   14   19 ar
    27   14   15 ar
    28   15   16 ar
    29   15   34 1
    30   16   17 ar
    31   16   35 1
    32   17   18 ar
    33   17   23 1
    34   18   19 ar
    35   18   20 1
    36   19   36 1
    37   20   21 2
    38   20   22 1
@<TRIPOS>MOLECULE
ZINC05163293
   35    37     0     0     0
SMALL
USER_CHARGES

@<TRIPOS>ATOM
      1 C1         -0.0161    1.3570    0.0361 C.ar      1 <0>        -0.1127
      2 C2          1.1680    2.0907    0.0291 C.ar      1 <0>        -0.1228
      3 C3          2.3790    1.4655    0.0057 C.ar      1 <0>        -0.1105
      4 C4          2.4354    0.0669   -0.0114 C.ar      1 <0>        -0.0363
      5 C5          1.2333   -0.6823   -0.0043 C.ar      1 <0>        -0.0536
      6 C6          0.0023   -0.0042    0.0199 C.ar      1 <0>        -0.1169
      7 C7          1.2940   -2.0858   -0.0211 C.ar      1 <0>        -0.1007
      8 C8          2.4936   -2.7290   -0.0440 C.ar      1 <0>        -0.1180
      9 C9          3.6962   -2.0360   -0.0518 C.ar      1 <0>        -0.0969
     10 C10         3.7112   -0.6462   -0.0362 C.ar      1 <0>        -0.0220
     11 C11         4.9835    0.0912   -0.0448 C.2       1 <0>         0.0605
     12 N1          4.9826    1.3879   -0.1369 N.2       1 <0>        -0.2134
     13 N2          6.1947    2.0904   -0.1451 N.pl3     1 <0>        -0.5768
     14 C12         6.1938    3.4823   -0.2439 C.ar      1 <0>         0.1778
     15 C13         4.9890    4.1730   -0.3285 C.ar      1 <0>        -0.1663
     16 C14         4.9825    5.5515   -0.4270 C.ar      1 <0>        -0.1067
     17 C15         6.1708    6.2532   -0.4418 C.ar      1 <0>        -0.1187
     18 C16         7.3868    5.5700   -0.3574 C.ar      1 <0>        -0.0969
     19 C17         7.3937    4.1779   -0.2521 C.ar      1 <0>        -0.1350
     20 C18         8.6588    6.3176   -0.3739 C.2       1 <0>         0.5202
     21 O1          8.6501    7.5373   -0.4616 O.co2     1 <0>        -0.6841
     22 O2          9.7218    5.7175   -0.2999 O.co2     1 <0>        -0.6876
     23 H1         -0.9630    1.8758    0.0593 H         1 <0>         0.1203
     24 H2          1.1259    3.1698    0.0419 H         1 <0>         0.1232
     25 H3          3.2898    2.0459    0.0001 H         1 <0>         0.1706
     26 H4         -0.9238   -0.5599    0.0259 H         1 <0>         0.1244
     27 H5          0.3796   -2.6604   -0.0154 H         1 <0>         0.1241
     28 H6          2.5100   -3.8088   -0.0562 H         1 <0>         0.1238
     29 H7          4.6282   -2.5814   -0.0702 H         1 <0>         0.1284
     30 H8          5.9186   -0.4446    0.0253 H         1 <0>         0.1215
     31 H9          7.0346    1.6092   -0.0821 H         1 <0>         0.3900
     32 H10         4.0556    3.6299   -0.3175 H         1 <0>         0.1214
     33 H11         4.0438    6.0816   -0.4931 H         1 <0>         0.1170
     34 H12         6.1608    7.3304   -0.5189 H         1 <0>         0.1262
     35 H13         8.3300    3.6442   -0.1820 H         1 <0>         0.1266
@<TRIPOS>BOND
     1    1    6 ar
     2    1    2 ar
     3    1   23 1
     4    2    3 ar
     5    2   24 1
     6    3    4 ar
     7    3   25 1
     8    4   10 ar
     9    4    5 ar
    10    5    6 ar
    11    5    7 ar
    12    6   26 1
    13    7    8 ar
    14    7   27 1
    15    8    9 ar
    16    8   28 1
    17    9   10 ar
    18    9   29 1
    19   10   11 1
    20   11   12 2
    21   11   30 1
    22   12   13 1
    23   13   14 1
    24   13   31 1
    25   14   19 ar
    26   14   15 ar
    27   15   16 ar
    28   15   32 1
    29   16   17 ar
    30   16   33 1
    31   17   18 ar
    32   17   34 1
    33   18   19 ar
    34   18   20 1
    35   19   35 1
    36   20   21 2
    37   20   22 1
@<TRIPOS>MOLECULE
ZINC50948823
   37    38     0     0     0
SMALL
USER_CHARGES

@<TRIPOS>ATOM
      1 C1         -0.3647   -1.4175    0.9604 C.3       1 <0>        -0.1439
      2 C2          0.8219   -2.0964    0.2735 C.3       1 <0>        -0.0606
      3 C3          1.0289   -1.4876   -1.0894 C.2       1 <0>        -0.1392
      4 C4          0.4709   -2.0666   -2.2018 C.2       1 <0>        -0.1244
      5 C5          0.7250   -1.4219   -3.4083 C.2       1 <0>        -0.1529
      6 S1          1.7318   -0.0475   -2.8836 S.3       1 <0>         0.2539
      7 C6          1.7650   -0.3562   -1.2325 C.2       1 <0>        -0.2526
      8 C7          2.4560    0.4405   -0.1560 C.3       1 <0>        -0.0580
      9 C8          0.2964   -1.7675   -4.7121 C.2       1 <0>         0.4342
     10 O1         -1.0210   -1.9057   -4.9754 O.3       1 <0>        -0.6212
     11 C9          1.2359   -1.9655   -5.7266 C.2       1 <0>        -0.4141
     12 C10         0.8008   -2.1688   -7.0757 C.1       1 <0>         0.3152
     13 N1          0.4557   -2.3302   -8.1459 N.1       1 <0>        -0.5283
     14 C11         2.6650   -1.9651   -5.4108 C.2       1 <0>         0.5887
     15 O2          3.0355   -1.7768   -4.2664 O.2       1 <0>        -0.5460
     16 N2          3.5708   -2.1732   -6.3868 N.am      1 <0>        -0.6846
     17 C12         4.9383   -2.0784   -6.1041 C.ar      1 <0>         0.1793
     18 C13         5.8098   -1.5579   -7.0520 C.ar      1 <0>        -0.1270
     19 C14         7.1589   -1.4646   -6.7715 C.ar      1 <0>        -0.1212
     20 C15         7.6435   -1.8895   -5.5460 C.ar      1 <0>         0.0725
     21 C16         6.7762   -2.4092   -4.5985 C.ar      1 <0>        -0.0510
     22 C17         5.4245   -2.4993   -4.8737 C.ar      1 <0>        -0.0891
     23 Cl1         7.3865   -2.9417   -3.0630 Cl        1 <0>        -0.0552
     24 F1          8.9636   -1.7976   -5.2739 F         1 <0>        -0.1349
     25 H1         -0.1625   -0.3516    1.0656 H         1 <0>         0.0521
     26 H2         -1.2626   -1.5593    0.3589 H         1 <0>         0.0547
     27 H3         -0.5145   -1.8579    1.9462 H         1 <0>         0.0490
     28 H4          1.7197   -1.9546    0.8750 H         1 <0>         0.0620
     29 H5          0.6196   -3.1623    0.1683 H         1 <0>         0.0619
     30 H6         -0.1263   -2.9646   -2.1443 H         1 <0>         0.1279
     31 H7          3.4704    0.0653   -0.0209 H         1 <0>         0.0678
     32 H8          2.4927    1.4901   -0.4477 H         1 <0>         0.0630
     33 H9          1.9047    0.3423    0.7791 H         1 <0>         0.0689
     34 H10         3.2751   -2.3886   -7.2851 H         1 <0>         0.4074
     35 H11         5.4327   -1.2266   -8.0083 H         1 <0>         0.1388
     36 H12         7.8365   -1.0601   -7.5088 H         1 <0>         0.1431
     37 H13         4.7478   -2.9002   -4.1335 H         1 <0>         0.1641
@<TRIPOS>BOND
     1    1    2 1
     2    1   25 1
     3    1   26 1
     4    1   27 1
     5    2    3 1
     6    2   28 1
     7    2   29 1
     8    3    7 2
     9    3    4 1
    10    4    5 2
    11    4   30 1
    12    5    6 1
    13    5    9 1
    14    6    7 1
    15    7    8 1
    16    8   31 1
    17    8   32 1
    18    8   33 1
    19    9   10 1
    20    9   11 2
    21   11   12 1
    22   11   14 1
    23   12   13 3
    24   14   15 2
    25   14   16 am
    26   16   17 1
    27   16   34 1
    28   17   22 ar
    29   17   18 ar
    30   18   19 ar
    31   18   35 1
    32   19   20 ar
    33   19   36 1
    34   20   21 ar
    35   20   24 1
    36   21   22 ar
    37   21   23 1
    38   22   37 1
@<TRIPOS>MOLECULE
ZINC57724418
   30    31     0     0     0
SMALL
USER_CHARGES

@<TRIPOS>ATOM
      1 C1         -0.0167    1.3777    0.0096 C.ar      1 <0>        -0.1160
      2 C2          1.1710    2.0855    0.0021 C.ar      1 <0>        -0.1204
      3 C3          2.3777    1.4116   -0.0130 C.ar      1 <0>        -0.0284
      4 C4          2.3977    0.0294   -0.0210 C.ar      1 <0>        -0.0831
      5 C5          1.2098   -0.6793   -0.0135 C.ar      1 <0>        -0.0369
      6 C6          0.0021   -0.0041    0.0020 C.ar      1 <0>        -0.1309
      7 Cl1         1.2341   -2.4151   -0.0242 Cl        1 <0>        -0.0874
      8 C7          3.6718    2.1839   -0.0212 C.3       1 <0>        -0.1179
      9 H1          3.4573    3.2525   -0.0135 H         1 <0>         0.0709
     10 C8          4.4674    1.8325   -1.2800 C.3       1 <0>        -0.0630
     11 C9          5.7020    2.6938   -1.3506 C.ar      1 <0>        -0.0528
     12 C10         5.6563    3.9171   -1.9948 C.ar      1 <0>        -0.0229
     13 C11         6.7901    4.7074   -2.0593 C.ar      1 <0>        -0.1180
     14 C12         7.9685    4.2746   -1.4808 C.ar      1 <0>        -0.1073
     15 C13         8.0147    3.0523   -0.8371 C.ar      1 <0>        -0.1135
     16 C14         6.8799    2.2639   -0.7665 C.ar      1 <0>        -0.0139
     17 Cl2         6.9362    0.7323    0.0488 Cl        1 <0>        -0.0064
     18 Cl3         4.1768    4.4605   -2.7224 Cl        1 <0>        -0.0680
     19 C15         4.4789    1.8247    1.1997 C.2       1 <0>         0.5070
     20 O1          4.8259    0.6704    1.3832 O.co2     1 <0>        -0.6690
     21 O2          4.7848    2.6884    2.0040 O.co2     1 <0>        -0.6934
     22 H2         -0.9592    1.9048    0.0259 H         1 <0>         0.1236
     23 H3          1.1559    3.1654    0.0076 H         1 <0>         0.1216
     24 H4          3.3407   -0.4970   -0.0336 H         1 <0>         0.1473
     25 H5         -0.9257   -0.5568    0.0079 H         1 <0>         0.1232
     26 H6          4.7583    0.7827   -1.2447 H         1 <0>         0.0879
     27 H7          3.8503    2.0091   -2.1609 H         1 <0>         0.0684
     28 H8          6.7546    5.6626   -2.5622 H         1 <0>         0.1321
     29 H9          8.8534    4.8915   -1.5321 H         1 <0>         0.1339
     30 H10         8.9358    2.7145   -0.3855 H         1 <0>         0.1334
@<TRIPOS>BOND
     1    1    6 ar
     2    1    2 ar
     3    1   22 1
     4    2    3 ar
     5    2   23 1
     6    3    4 ar
     7    3    8 1
     8    4    5 ar
     9    4   24 1
    10    5    6 ar
    11    5    7 1
    12    6   25 1
    13    8    9 1
    14    8   10 1
    15    8   19 1
    16   10   11 1
    17   10   26 1
    18   10   27 1
    19   11   16 ar
    20   11   12 ar
    21   12   13 ar
    22   12   18 1
    23   13   14 ar
    24   13   28 1
    25   14   15 ar
    26   14   29 1
    27   15   16 ar
    28   15   30 1
    29   16   17 1
    30   19   20 2
    31   19   21 1
@<TRIPOS>MOLECULE
ZINC03885952
   47    50     0     0     0
SMALL
USER_CHARGES
4-[(4-methoxyphenyl)methylene]-2-methyl-2,3-dihydro-1H-acridine-9-carboxylic acid
@<TRIPOS>ATOM
      1 C1         -2.2013    4.9180   -2.0094 C.3       1 <0>        -0.1443
      2 C2         -2.2276    3.4515   -1.5739 C.3       1 <0>        -0.0874
      3 H1         -2.0072    2.8138   -2.4300 H         1 <0>         0.0741
      4 C3         -3.6096    3.1077   -1.0250 C.3       1 <0>        -0.0705
      5 C4         -3.6412    1.7146   -0.4607 C.ar      1 <0>        -0.1249
      6 C5         -4.8634    1.0632   -0.3530 C.ar      1 <0>        -0.0228
      7 C6         -4.8654   -0.2858    0.2129 C.ar      1 <0>        -0.0894
      8 C7         -6.0491   -1.0159    0.3605 C.ar      1 <0>        -0.0685
      9 C8         -6.0057   -2.2691    0.8970 C.ar      1 <0>        -0.1366
     10 C9         -4.7967   -2.8312    1.3008 C.ar      1 <0>        -0.1047
     11 C10        -3.6264   -2.1487    1.1708 C.ar      1 <0>        -0.1039
     12 C11        -3.6314   -0.8535    0.6196 C.ar      1 <0>         0.1313
     13 N1         -2.5021   -0.1617    0.4766 N.ar      1 <0>        -0.4917
     14 C12        -2.4727    1.0583   -0.0346 C.ar      1 <0>         0.2061
     15 C13        -1.1676    1.7441   -0.1590 C.2       1 <0>        -0.0670
     16 C14        -0.0126    1.0758    0.0080 C.2       1 <0>        -0.0803
     17 C15         1.2636    1.8092    0.0441 C.ar      1 <0>        -0.0843
     18 C16         2.4256    1.2206   -0.4649 C.ar      1 <0>        -0.0660
     19 C17         3.6162    1.9126   -0.4331 C.ar      1 <0>        -0.2095
     20 C18         3.6661    3.1892    0.1131 C.ar      1 <0>         0.1229
     21 C19         2.5154    3.7761    0.6249 C.ar      1 <0>        -0.1526
     22 C20         1.3189    3.0942    0.5929 C.ar      1 <0>        -0.0708
     23 O1          4.8433    3.8656    0.1465 O.3       1 <0>        -0.3189
     24 C21         5.9875    3.2038   -0.3965 C.3       1 <0>         0.0275
     25 C22        -1.1763    3.2244   -0.4743 C.3       1 <0>        -0.0836
     26 C23        -6.1169    1.7099   -0.7943 C.2       1 <0>         0.5022
     27 O2         -6.7624    2.3796   -0.0132 O.co2     1 <0>        -0.6172
     28 H2         -2.4206    5.5553   -1.1527 H         1 <0>         0.0560
     29 H3         -1.2142    5.1630   -2.4013 H         1 <0>         0.0543
     30 H4         -2.9505    5.0804   -2.7843 H         1 <0>         0.0586
     31 H5         -4.3420    3.1841   -1.8286 H         1 <0>         0.0864
     32 H6         -3.8681    3.8172   -0.2390 H         1 <0>         0.0765
     33 H7         -6.9921   -0.5901    0.0509 H         1 <0>         0.1304
     34 H8         -6.9200   -2.8326    1.0104 H         1 <0>         0.1234
     35 H9         -4.7881   -3.8246    1.7244 H         1 <0>         0.1236
     36 H10        -2.6977   -2.5992    1.4887 H         1 <0>         0.1291
     37 H11        -0.0207    0.0008    0.1111 H         1 <0>         0.1331
     38 H12         2.3887    0.2266   -0.8857 H         1 <0>         0.1272
     39 H13         4.5133    1.4605   -0.8297 H         1 <0>         0.1268
     40 H14         2.5591    4.7688    1.0482 H         1 <0>         0.1308
     41 H15         0.4251    3.5512    0.9913 H         1 <0>         0.1392
     42 H16         5.8105    2.9757   -1.4476 H         1 <0>         0.0551
     43 H17         6.8589    3.8525   -0.3072 H         1 <0>         0.0981
     44 H18         6.1658    2.2783    0.1511 H         1 <0>         0.0547
     45 H19        -1.4411    3.7914    0.4181 H         1 <0>         0.0792
     46 H20        -0.1938    3.5326   -0.8317 H         1 <0>         0.0871
     47 O3         -6.5435    1.5567   -2.0629 O.co2     1 <0>        -0.7388
@<TRIPOS>BOND
     1    1    2 1
     2    1   28 1
     3    1   29 1
     4    1   30 1
     5    2    3 1
     6    2   25 1
     7    2    4 1
     8    4    5 1
     9    4   31 1
    10    4   32 1
    11    5   14 ar
    12    5    6 ar
    13    6    7 ar
    14    6   26 1
    15    7   12 ar
    16    7    8 ar
    17    8    9 ar
    18    8   33 1
    19    9   10 ar
    20    9   34 1
    21   10   11 ar
    22   10   35 1
    23   11   12 ar
    24   11   36 1
    25   12   13 ar
    26   13   14 ar
    27   14   15 1
    28   15   16 2
    29   15   25 1
    30   16   17 1
    31   16   37 1
    32   17   22 ar
    33   17   18 ar
    34   18   19 ar
    35   18   38 1
    36   19   20 ar
    37   19   39 1
    38   20   21 ar
    39   20   23 1
    40   21   22 ar
    41   21   40 1
    42   22   41 1
    43   23   24 1
    44   24   42 1
    45   24   43 1
    46   24   44 1
    47   25   45 1
    48   25   46 1
    49   26   27 2
    50   26   47 1
@<TRIPOS>MOLECULE
ZINC11850060
   47    50     0     0     0
SMALL
USER_CHARGES
6-methyl-2-phenyl-3-(1-piperidyl)quinoline-4-carboxylic acid
@<TRIPOS>ATOM
      1 C1          0.0069   -4.2386    0.5663 C.3       1 <0>        -0.1098
      2 C2          0.0234   -2.7355    0.4588 C.ar      1 <0>        -0.1024
      3 C3         -1.1568   -2.0196    0.6420 C.ar      1 <0>        -0.1027
      4 C4         -1.1760   -0.6613    0.5516 C.ar      1 <0>        -0.0971
      5 C5          0.0124    0.0365    0.2688 C.ar      1 <0>         0.1236
      6 C6          1.2101   -0.6975    0.0840 C.ar      1 <0>        -0.0790
      7 C7          1.1945   -2.0923    0.1837 C.ar      1 <0>        -0.0730
      8 C8          2.4451    0.0327   -0.2103 C.ar      1 <0>        -0.0575
      9 C9          2.3606    1.4263   -0.2907 C.ar      1 <0>         0.0512
     10 C10         1.1098    2.0525   -0.0888 C.ar      1 <0>         0.2232
     11 N1          0.0197    1.3683    0.1742 N.ar      1 <0>        -0.4818
     12 C11         1.0254    3.5293   -0.1760 C.ar      1 <0>        -0.0253
     13 C12         2.0061    4.3228    0.4182 C.ar      1 <0>        -0.0602
     14 C13         1.9254    5.6974    0.3283 C.ar      1 <0>        -0.1315
     15 C14         0.8679    6.2888   -0.3395 C.ar      1 <0>        -0.1169
     16 C15        -0.1114    5.5069   -0.9257 C.ar      1 <0>        -0.1346
     17 C16        -0.0382    4.1312   -0.8478 C.ar      1 <0>        -0.0859
     18 N2          3.4858    2.1815   -0.5656 N.pl3     1 <0>        -0.4868
     19 C17         4.0172    1.8683   -1.8982 C.3       1 <0>         0.0294
     20 C18         5.1691    2.8209   -2.2263 C.3       1 <0>        -0.1066
     21 C19         6.2671    2.6693   -1.1699 C.3       1 <0>        -0.1198
     22 C20         5.6760    2.9537    0.2137 C.3       1 <0>        -0.1070
     23 C21         4.5094    1.9972    0.4711 C.3       1 <0>         0.0152
     24 C22         3.7216   -0.6706   -0.4123 C.2       1 <0>         0.5058
     25 O1          4.0461   -1.0332   -1.5261 O.co2     1 <0>        -0.6079
     26 H1          0.2009   -4.5312    1.5982 H         1 <0>         0.0686
     27 H2         -0.9694   -4.6140    0.2596 H         1 <0>         0.0639
     28 H3          0.7771   -4.6576   -0.0812 H         1 <0>         0.0662
     29 H4         -2.0720   -2.5506    0.8589 H         1 <0>         0.1245
     30 H5         -2.1001   -0.1214    0.6964 H         1 <0>         0.1312
     31 H6          2.1045   -2.6570    0.0441 H         1 <0>         0.1291
     32 H7          2.8296    3.8624    0.9439 H         1 <0>         0.1308
     33 H8          2.6869    6.3130    0.7839 H         1 <0>         0.1191
     34 H9          0.8067    7.3651   -0.4037 H         1 <0>         0.1155
     35 H10        -0.9346    5.9742   -1.4457 H         1 <0>         0.1178
     36 H11        -0.8029    3.5218   -1.3064 H         1 <0>         0.1211
     37 H12         4.3806    0.8407   -1.9119 H         1 <0>         0.0853
     38 H13         3.2275    1.9840   -2.6405 H         1 <0>         0.0613
     39 H14         4.8034    3.8477   -2.2263 H         1 <0>         0.0620
     40 H15         5.5735    2.5781   -3.2090 H         1 <0>         0.0607
     41 H16         7.0703    3.3769   -1.3753 H         1 <0>         0.0558
     42 H17         6.6600    1.6530   -1.1962 H         1 <0>         0.0632
     43 H18         5.3182    3.9826    0.2521 H         1 <0>         0.0600
     44 H19         6.4425    2.8057    0.9743 H         1 <0>         0.0619
     45 H20         4.0772    2.2066    1.4496 H         1 <0>         0.0614
     46 H21         4.8706    0.9691    0.4461 H         1 <0>         0.1039
     47 O2          4.5313   -0.9127    0.6379 O.co2     1 <0>        -0.7259
@<TRIPOS>BOND
     1    1    2 1
     2    1   26 1
     3    1   27 1
     4    1   28 1
     5    2    7 ar
     6    2    3 ar
     7    3    4 ar
     8    3   29 1
     9    4    5 ar
    10    4   30 1
    11    5   11 ar
    12    5    6 ar
    13    6    7 ar
    14    6    8 ar
    15    7   31 1
    16    8    9 ar
    17    8   24 1
    18    9   10 ar
    19    9   18 1
    20   10   11 ar
    21   10   12 1
    22   12   17 ar
    23   12   13 ar
    24   13   14 ar
    25   13   32 1
    26   14   15 ar
    27   14   33 1
    28   15   16 ar
    29   15   34 1
    30   16   17 ar
    31   16   35 1
    32   17   36 1
    33   18   23 1
    34   18   19 1
    35   19   20 1
    36   19   37 1
    37   19   38 1
    38   20   21 1
    39   20   39 1
    40   20   40 1
    41   21   22 1
    42   21   41 1
    43   21   42 1
    44   22   23 1
    45   22   43 1
    46   22   44 1
    47   23   45 1
    48   23   46 1
    49   24   25 2
    50   24   47 1
@<TRIPOS>MOLECULE
ZINC16381924
   38    39     0     0     0
SMALL
USER_CHARGES

@<TRIPOS>ATOM
      1 C1         -0.0187    1.5258    0.0104 C.3       1 <0>        -0.1486
      2 C2          0.0021   -0.0041    0.0020 C.3       1 <0>        -0.0901
      3 C3          0.7074   -0.4901   -1.2379 C.ar      1 <0>        -0.0304
      4 C4          2.0237   -0.9040   -1.1659 C.ar      1 <0>        -0.1369
      5 C5          2.6724   -1.3512   -2.3073 C.ar      1 <0>         0.1387
      6 C6          1.9980   -1.3820   -3.5194 C.ar      1 <0>        -0.2022
      7 C7          0.6823   -0.9673   -3.5873 C.ar      1 <0>        -0.0649
      8 C8          0.0349   -0.5268   -2.4463 C.ar      1 <0>        -0.0710
      9 Cl1        -1.6210   -0.0128   -2.5328 Cl        1 <0>        -0.0644
     10 O1          3.9674   -1.7584   -2.2386 O.3       1 <0>        -0.3032
     11 C9          4.5719   -2.2065   -3.4535 C.3       1 <0>         0.0729
     12 C10         6.0192   -2.6209   -3.1804 C.3       1 <0>        -0.1053
     13 S1          6.7866   -3.1896   -4.7225 S.3       1 <0>         0.0158
     14 C11         8.4265   -3.6250   -4.2474 C.2       1 <0>         0.3737
     15 N1          8.7940   -3.4900   -2.9877 N.2       1 <0>        -0.5402
     16 C12        10.0225   -3.8076   -2.5872 C.2       1 <0>         0.1930
     17 C13        10.9340   -4.2840   -3.4848 C.2       1 <0>        -0.2956
     18 C14        10.5511   -4.4312   -4.8295 C.2       1 <0>         0.5300
     19 N2          9.2914   -4.1006   -5.1857 N.am      1 <0>        -0.6144
     20 O2         11.3408   -4.8538   -5.6581 O.2       1 <0>        -0.5316
     21 C15        10.4084   -3.6407   -1.1401 C.3       1 <0>        -0.1108
     22 H1          1.0039    1.9031    0.0027 H         1 <0>         0.0568
     23 H2         -0.5459    1.8868   -0.8726 H         1 <0>         0.0601
     24 H3         -0.5289    1.8773    0.9072 H         1 <0>         0.0630
     25 H4          0.5293   -0.3651    0.8851 H         1 <0>         0.0788
     26 H5         -1.0205   -0.3814    0.0098 H         1 <0>         0.0824
     27 H6          2.5471   -0.8790   -0.2216 H         1 <0>         0.1414
     28 H7          2.5016   -1.7295   -4.4094 H         1 <0>         0.1371
     29 H8          0.1569   -0.9911   -4.5307 H         1 <0>         0.1378
     30 H9          4.0167   -3.0601   -3.8424 H         1 <0>         0.0782
     31 H10         4.5572   -1.3993   -4.1859 H         1 <0>         0.0781
     32 H11         6.5744   -1.7673   -2.7915 H         1 <0>         0.1160
     33 H12         6.0339   -3.4281   -2.4480 H         1 <0>         0.1161
     34 H13        11.9331   -4.5432   -3.1672 H         1 <0>         0.1592
     35 H14         9.0048   -4.1976   -6.1073 H         1 <0>         0.4214
     36 H15         9.5582   -3.2518   -0.5798 H         1 <0>         0.0825
     37 H16        10.7035   -4.6061   -0.7290 H         1 <0>         0.0884
     38 H17        11.2428   -2.9434   -1.0647 H         1 <0>         0.0884
@<TRIPOS>BOND
     1    1    2 1
     2    1   22 1
     3    1   23 1
     4    1   24 1
     5    2    3 1
     6    2   25 1
     7    2   26 1
     8    3    8 ar
     9    3    4 ar
    10    4    5 ar
    11    4   27 1
    12    5    6 ar
    13    5   10 1
    14    6    7 ar
    15    6   28 1
    16    7    8 ar
    17    7   29 1
    18    8    9 1
    19   10   11 1
    20   11   12 1
    21   11   30 1
    22   11   31 1
    23   12   32 1
    24   12   33 1
    25   12   13 1
    26   13   14 1
    27   14   19 1
    28   14   15 2
    29   15   16 1
    30   16   17 2
    31   16   21 1
    32   17   18 1
    33   17   34 1
    34   18   19 am
    35   18   20 2
    36   19   35 1
    37   21   36 1
    38   21   37 1
    39   21   38 1
@<TRIPOS>MOLECULE
ZINC41531890
   36    36     0     0     0
SMALL
USER_CHARGES

@<TRIPOS>ATOM
      1 C1         -1.5112   -2.5496    2.3446 C.3       1 <0>        -0.1454
      2 C2         -0.5643   -2.1268    1.2196 C.3       1 <0>        -0.1023
      3 C3         -1.0470   -2.7229   -0.1043 C.3       1 <0>        -0.1442
      4 C4         -0.5460   -0.6005    1.1150 C.3       1 <0>        -0.0869
      5 C5          0.0647   -0.0095    2.3873 C.3       1 <0>        -0.1537
      6 H1         -0.4681   -0.3921    3.2578 H         1 <0>         0.0652
      7 C6          1.5396   -0.4063    2.4770 C.3       1 <0>        -0.0922
      8 C7          2.1181    0.0782    3.8079 C.3       1 <0>         0.0589
      9 O1          3.4956   -0.2924    3.8917 O.3       1 <0>        -0.3048
     10 C8          4.1633    0.0653    5.0200 C.ar      1 <0>         0.1699
     11 C9          3.5044    0.7538    6.0281 C.ar      1 <0>        -0.1971
     12 C10         4.1854    1.1169    7.1753 C.ar      1 <0>         0.0192
     13 C11         5.5233    0.7945    7.3181 C.ar      1 <0>        -0.1504
     14 C12         6.1824    0.1082    6.3135 C.ar      1 <0>         0.0136
     15 C13         5.5031   -0.2625    5.1676 C.ar      1 <0>        -0.1475
     16 Cl1         7.8612   -0.2945    6.4952 Cl        1 <0>        -0.0566
     17 Cl2         3.3614    1.9786    8.4372 Cl        1 <0>        -0.0548
     18 C14        -0.0499    1.4927    2.3485 C.2       1 <0>         0.4948
     19 O2          0.4668    2.1202    1.4398 O.co2     1 <0>        -0.6944
     20 O3         -0.6592    2.0804    3.2259 O.co2     1 <0>        -0.7015
     21 H2         -2.4947   -2.1110    2.1758 H         1 <0>         0.0521
     22 H3         -1.5957   -3.6362    2.3593 H         1 <0>         0.0455
     23 H4         -1.1178   -2.2028    3.3001 H         1 <0>         0.0565
     24 H5          0.4410   -2.4883    1.4358 H         1 <0>         0.0688
     25 H6         -2.0523   -2.3615   -0.3204 H         1 <0>         0.0513
     26 H7         -0.3724   -2.4217   -0.9057 H         1 <0>         0.0523
     27 H8         -1.0600   -3.8103   -0.0298 H         1 <0>         0.0473
     28 H9          0.0509   -0.3025    0.2531 H         1 <0>         0.0642
     29 H10        -1.5650   -0.2322    0.9961 H         1 <0>         0.0560
     30 H11         1.6284   -1.4909    2.4156 H         1 <0>         0.0622
     31 H12         2.0895    0.0504    1.6541 H         1 <0>         0.0767
     32 H13         2.0293    1.1629    3.8694 H         1 <0>         0.0749
     33 H14         1.5683   -0.3785    4.6309 H         1 <0>         0.0621
     34 H15         2.4603    1.0063    5.9167 H         1 <0>         0.1505
     35 H16         6.0540    1.0791    8.2146 H         1 <0>         0.1429
     36 H17         6.0166   -0.8024    4.3858 H         1 <0>         0.1470
@<TRIPOS>BOND
     1    1    2 1
     2    1   21 1
     3    1   22 1
     4    1   23 1
     5    2    3 1
     6    2    4 1
     7    2   24 1
     8    3   25 1
     9    3   26 1
    10    3   27 1
    11    4    5 1
    12    4   28 1
    13    4   29 1
    14    5    6 1
    15    5    7 1
    16    5   18 1
    17    7    8 1
    18    7   30 1
    19    7   31 1
    20    8    9 1
    21    8   32 1
    22    8   33 1
    23    9   10 1
    24   10   15 ar
    25   10   11 ar
    26   11   12 ar
    27   11   34 1
    28   12   13 ar
    29   12   17 1
    30   13   14 ar
    31   13   35 1
    32   14   15 ar
    33   14   16 1
    34   15   36 1
    35   18   19 2
    36   18   20 1
@<TRIPOS>MOLECULE
ZINC57743036
   30    31     0     0     0
SMALL
USER_CHARGES

@<TRIPOS>ATOM
      1 C1         -0.0167    1.3782    0.0096 C.ar      1 <0>        -0.0972
      2 C2          1.1703    2.0860    0.0021 C.ar      1 <0>        -0.1593
      3 C3          2.3786    1.4101   -0.0131 C.ar      1 <0>         0.0741
      4 C4          2.3962    0.0256   -0.0207 C.ar      1 <0>        -0.1573
      5 C5          1.2079   -0.6800   -0.0132 C.ar      1 <0>        -0.0665
      6 C6          0.0021   -0.0041    0.0020 C.ar      1 <0>        -0.0537
      7 C7         -1.2930   -0.7747    0.0103 C.3       1 <0>        -0.1216
      8 H1         -2.1306   -0.0773    0.0220 H         1 <0>         0.0730
      9 C8         -1.3505   -1.6620    1.2554 C.3       1 <0>        -0.0576
     10 C9         -2.6950   -2.3389    1.3281 C.ar      1 <0>        -0.0476
     11 C10        -3.7417   -1.7268    1.9923 C.ar      1 <0>        -0.1038
     12 C11        -4.9751   -2.3467    2.0601 C.ar      1 <0>        -0.1038
     13 C12        -5.1629   -3.5803    1.4628 C.ar      1 <0>        -0.0397
     14 C13        -4.1149   -4.1931    0.7973 C.ar      1 <0>        -0.0247
     15 C14        -2.8824   -3.5687    0.7259 C.ar      1 <0>        -0.0732
     16 Cl1        -4.3489   -5.7413    0.0476 Cl        1 <0>        -0.0579
     17 Cl2        -6.7118   -4.3598    1.5481 Cl        1 <0>        -0.0656
     18 C15        -1.3732   -1.6354   -1.2241 C.2       1 <0>         0.5069
     19 O1         -0.5251   -2.4869   -1.4298 O.co2     1 <0>        -0.6869
     20 O2         -2.2862   -1.4804   -2.0172 O.co2     1 <0>        -0.6874
     21 F1          3.5396    2.1009   -0.0209 F         1 <0>        -0.1505
     22 H2         -0.9592    1.9052    0.0260 H         1 <0>         0.1269
     23 H3          1.1554    3.1659    0.0077 H         1 <0>         0.1273
     24 H4          3.3381   -0.5027   -0.0329 H         1 <0>         0.1289
     25 H5          1.2213   -1.7599   -0.0195 H         1 <0>         0.1461
     26 H6         -0.5662   -2.4168    1.2002 H         1 <0>         0.0830
     27 H7         -1.2035   -1.0496    2.1450 H         1 <0>         0.0676
     28 H8         -3.5954   -0.7637    2.4588 H         1 <0>         0.1345
     29 H9         -5.7921   -1.8683    2.5798 H         1 <0>         0.1374
     30 H10        -2.0656   -4.0443    0.2035 H         1 <0>         0.1487
@<TRIPOS>BOND
     1    1    6 ar
     2    1    2 ar
     3    1   22 1
     4    2    3 ar
     5    2   23 1
     6    3    4 ar
     7    3   21 1
     8    4    5 ar
     9    4   24 1
    10    5    6 ar
    11    5   25 1
    12    6    7 1
    13    7    8 1
    14    7    9 1
    15    7   18 1
    16    9   10 1
    17    9   26 1
    18    9   27 1
    19   10   15 ar
    20   10   11 ar
    21   11   12 ar
    22   11   28 1
    23   12   13 ar
    24   12   29 1
    25   13   14 ar
    26   13   17 1
    27   14   15 ar
    28   14   16 1
    29   15   30 1
    30   18   19 2
    31   18   20 1
@<TRIPOS>MOLECULE
ZINC00100265
   33    35     0     0     0
SMALL
USER_CHARGES
2-(1-naphthylmethyleneamino)benzoic acid
@<TRIPOS>ATOM
      1 C1         -3.0997    5.4888    0.8165 C.ar      1 <0>        -0.1086
      2 C2         -2.9749    4.1039    0.7384 C.ar      1 <0>        -0.1311
      3 C3         -1.7826    3.5252    0.4176 C.ar      1 <0>        -0.0801
      4 C4         -0.6699    4.3325    0.1568 C.ar      1 <0>        -0.0272
      5 C5         -0.7915    5.7411    0.2416 C.ar      1 <0>        -0.0578
      6 C6         -2.0358    6.3035    0.5750 C.ar      1 <0>        -0.1301
      7 C7          0.3299    6.5480   -0.0143 C.ar      1 <0>        -0.0970
      8 C8          1.5298    5.9899   -0.3359 C.ar      1 <0>        -0.1253
      9 C9          1.6981    4.6159   -0.4244 C.ar      1 <0>        -0.0976
     10 C10         0.6303    3.7554   -0.1844 C.ar      1 <0>        -0.0389
     11 C11         0.8038    2.3017   -0.2774 C.2       1 <0>         0.1673
     12 N1         -0.2294    1.5112   -0.1543 N.2       1 <0>        -0.4052
     13 C12        -0.0644    0.1596   -0.2149 C.ar      1 <0>         0.0946
     14 C13         0.9154   -0.4652    0.5604 C.ar      1 <0>        -0.1644
     15 C14         1.0743   -1.8330    0.4985 C.ar      1 <0>        -0.1114
     16 C15         0.2746   -2.5973   -0.3375 C.ar      1 <0>        -0.1448
     17 C16        -0.6951   -2.0015   -1.1155 C.ar      1 <0>        -0.0687
     18 C17        -0.8778   -0.6183   -1.0654 C.ar      1 <0>        -0.0999
     19 C18        -1.9120    0.0241   -1.8946 C.2       1 <0>         0.4850
     20 O1         -2.0031    1.2356   -1.9218 O.co2     1 <0>        -0.6004
     21 H1         -4.0549    5.9231    1.0722 H         1 <0>         0.1158
     22 H2         -3.8342    3.4798    0.9342 H         1 <0>         0.1189
     23 H3         -1.6988    2.4500    0.3603 H         1 <0>         0.1838
     24 H4         -2.1474    7.3758    0.6389 H         1 <0>         0.1202
     25 H5          0.2394    7.6226    0.0450 H         1 <0>         0.1211
     26 H6          2.3743    6.6354   -0.5269 H         1 <0>         0.1208
     27 H7          2.6653    4.2103   -0.6821 H         1 <0>         0.1264
     28 H8          1.7855    1.8848   -0.4476 H         1 <0>         0.1076
     29 H9          1.5457    0.1229    1.2110 H         1 <0>         0.1176
     30 H10         1.8302   -2.3125    1.1026 H         1 <0>         0.1171
     31 H11         0.4127   -3.6676   -0.3798 H         1 <0>         0.1181
     32 H12        -1.3132   -2.6047   -1.7641 H         1 <0>         0.1350
     33 O2         -2.7571   -0.7318   -2.6232 O.co2     1 <0>        -0.7606
@<TRIPOS>BOND
     1    1    6 ar
     2    1    2 ar
     3    1   21 1
     4    2    3 ar
     5    2   22 1
     6    3    4 ar
     7    3   23 1
     8    4   10 ar
     9    4    5 ar
    10    5    6 ar
    11    5    7 ar
    12    6   24 1
    13    7    8 ar
    14    7   25 1
    15    8    9 ar
    16    8   26 1
    17    9   10 ar
    18    9   27 1
    19   10   11 1
    20   11   12 2
    21   11   28 1
    22   12   13 1
    23   13   18 ar
    24   13   14 ar
    25   14   15 ar
    26   14   29 1
    27   15   16 ar
    28   15   30 1
    29   16   17 ar
    30   16   31 1
    31   17   18 ar
    32   17   32 1
    33   18   19 1
    34   19   20 2
    35   19   33 1
@<TRIPOS>MOLECULE
ZINC19670500
   34    36     0     0     0
SMALL
USER_CHARGES
(2S)-2-(3-chlorophenyl)-2-(2-naphthyloxy)acetic acid
@<TRIPOS>ATOM
      1 C1          7.8206   -0.9435    4.5117 C.ar      1 <0>        -0.1424
      2 C2          7.7917    0.4282    4.7566 C.ar      1 <0>        -0.1137
      3 C3          6.9247    1.2402    4.0926 C.ar      1 <0>        -0.1154
      4 C4          6.0439    0.6905    3.1448 C.ar      1 <0>        -0.0089
      5 C5          5.1398    1.4986    2.4361 C.ar      1 <0>        -0.1746
      6 C6          4.2953    0.9292    1.5263 C.ar      1 <0>         0.1700
      7 C7          4.3262   -0.4475    1.2824 C.ar      1 <0>        -0.1747
      8 C8          5.1935   -1.2561    1.9482 C.ar      1 <0>        -0.0715
      9 C9          6.0734   -0.7046    2.8959 C.ar      1 <0>        -0.0898
     10 C10         6.9828   -1.5108    3.6014 C.ar      1 <0>        -0.0894
     11 O1          3.4174    1.7113    0.8451 O.3       1 <0>        -0.2952
     12 C11         2.4841    1.0469   -0.0091 C.3       1 <0>         0.0760
     13 H1          2.2165    0.1039    0.4900 H         1 <0>         0.0835
     14 C12         1.2688    1.9175   -0.1988 C.ar      1 <0>        -0.0351
     15 C13         1.4149    3.2830   -0.3587 C.ar      1 <0>        -0.0895
     16 C14         0.3006    4.0823   -0.5318 C.ar      1 <0>        -0.1121
     17 C15        -0.9607    3.5166   -0.5460 C.ar      1 <0>        -0.1176
     18 C16        -1.1071    2.1497   -0.3918 C.ar      1 <0>        -0.0349
     19 C17         0.0084    1.3509   -0.2124 C.ar      1 <0>        -0.0874
     20 Cl1        -2.6902    1.4377   -0.4167 Cl        1 <0>        -0.0807
     21 C18         3.1268    0.7831   -1.3464 C.2       1 <0>         0.4555
     22 O2          4.2338    1.2077   -1.5790 O.co2     1 <0>        -0.6072
     23 O3          2.4693    0.0766   -2.2793 O.co2     1 <0>        -0.7452
     24 H2          8.5187   -1.5656    5.0521 H         1 <0>         0.1167
     25 H3          8.4676    0.8531    5.4840 H         1 <0>         0.1175
     26 H4          6.9132    2.3014    4.2929 H         1 <0>         0.1238
     27 H5          5.1097    2.5637    2.6126 H         1 <0>         0.1314
     28 H6          3.6519   -0.8746    0.5548 H         1 <0>         0.1332
     29 H7          5.2066   -2.3176    1.7494 H         1 <0>         0.1288
     30 H8          7.0169   -2.5752    3.4220 H         1 <0>         0.1222
     31 H9          2.4001    3.7254   -0.3480 H         1 <0>         0.1332
     32 H10         0.4153    5.1489   -0.6563 H         1 <0>         0.1308
     33 H11        -1.8312    4.1411   -0.6819 H         1 <0>         0.1294
     34 H12        -0.1056    0.2842   -0.0874 H         1 <0>         0.1336
@<TRIPOS>BOND
     1    1   10 ar
     2    1    2 ar
     3    1   24 1
     4    2    3 ar
     5    2   25 1
     6    3    4 ar
     7    3   26 1
     8    4    9 ar
     9    4    5 ar
    10    5    6 ar
    11    5   27 1
    12    6    7 ar
    13    6   11 1
    14    7    8 ar
    15    7   28 1
    16    8    9 ar
    17    8   29 1
    18    9   10 ar
    19   10   30 1
    20   11   12 1
    21   12   13 1
    22   12   14 1
    23   12   21 1
    24   14   19 ar
    25   14   15 ar
    26   15   16 ar
    27   15   31 1
    28   16   17 ar
    29   16   32 1
    30   17   18 ar
    31   17   33 1
    32   18   19 ar
    33   18   20 1
    34   19   34 1
    35   21   22 2
    36   21   23 1
@<TRIPOS>MOLECULE
ZINC37528492
   39    40     0     0     0
SMALL
USER_CHARGES

@<TRIPOS>ATOM
      1 C1         -0.0187    1.5258    0.0104 C.3       1 <0>        -0.1451
      2 C2          0.0021   -0.0041    0.0020 C.3       1 <0>        -0.0345
      3 C3          0.7309   -0.5033    1.2229 C.2       1 <0>        -0.1765
      4 C4          0.2362   -0.8065    2.4479 C.2       1 <0>        -0.1537
      5 C5          1.1018   -1.2535    3.4286 C.2       1 <0>        -0.1830
      6 C6          2.4197   -1.3753    3.1363 C.2       1 <0>        -0.1042
      7 S1          2.4688   -0.8562    1.4288 S.3       1 <0>         0.0757
      8 C7          3.5495   -1.8351    4.0213 C.3       1 <0>        -0.0208
      9 C8          3.7117   -3.3512    3.8950 C.3       1 <0>        -0.1510
     10 H1          2.7615   -3.8378    4.1152 H         1 <0>         0.0620
     11 C9          4.7736   -3.8347    4.8847 C.3       1 <0>        -0.0613
     12 C10         4.8465   -5.3395    4.8480 C.ar      1 <0>        -0.0594
     13 C11         4.0458   -6.0910    5.6880 C.ar      1 <0>        -0.1270
     14 C12         4.1126   -7.4711    5.6543 C.ar      1 <0>        -0.1246
     15 C13         4.9798   -8.1001    4.7804 C.ar      1 <0>        -0.1344
     16 C14         5.7796   -7.3489    3.9401 C.ar      1 <0>        -0.0895
     17 C15         5.7097   -5.9684    3.9707 C.ar      1 <0>        -0.0930
     18 C16         6.7252   -8.0345    2.9878 C.3       1 <0>        -0.1098
     19 C17         4.1392   -3.6956    2.4916 C.2       1 <0>         0.5094
     20 O1          5.1825   -3.2496    2.0453 O.co2     1 <0>        -0.6986
     21 O2          3.4417   -4.4201    1.8023 O.co2     1 <0>        -0.6916
     22 H2          1.0039    1.9031    0.0027 H         1 <0>         0.0567
     23 H3         -0.5459    1.8868   -0.8726 H         1 <0>         0.0574
     24 H4         -0.5289    1.8773    0.9072 H         1 <0>         0.0553
     25 H5         -1.0205   -0.3814    0.0098 H         1 <0>         0.0781
     26 H6          0.5123   -0.3556   -0.8948 H         1 <0>         0.0750
     27 H7         -0.8185   -0.7002    2.6547 H         1 <0>         0.1202
     28 H8          0.7335   -1.5016    4.4130 H         1 <0>         0.1235
     29 H9          4.4735   -1.3441    3.7155 H         1 <0>         0.0813
     30 H10         3.3273   -1.5784    5.0570 H         1 <0>         0.0715
     31 H11         5.7425   -3.4172    4.6107 H         1 <0>         0.0756
     32 H12         4.5086   -3.5082    5.8903 H         1 <0>         0.0575
     33 H13         3.3683   -5.5996    6.3707 H         1 <0>         0.1141
     34 H14         3.4876   -8.0581    6.3110 H         1 <0>         0.1137
     35 H15         5.0325   -9.1785    4.7546 H         1 <0>         0.1128
     36 H16         6.3319   -5.3814    3.3114 H         1 <0>         0.1263
     37 H17         6.2174   -8.2186    2.0411 H         1 <0>         0.0688
     38 H18         7.5934   -7.3980    2.8167 H         1 <0>         0.0639
     39 H19         7.0488   -8.9828    3.4169 H         1 <0>         0.0590
@<TRIPOS>BOND
     1    1    2 1
     2    1   22 1
     3    1   23 1
     4    1   24 1
     5    2    3 1
     6    2   25 1
     7    2   26 1
     8    3    7 1
     9    3    4 2
    10    4    5 1
    11    4   27 1
    12    5    6 2
    13    5   28 1
    14    6    7 1
    15    6    8 1
    16    8    9 1
    17    8   29 1
    18    8   30 1
    19    9   10 1
    20    9   11 1
    21    9   19 1
    22   11   12 1
    23   11   31 1
    24   11   32 1
    25   12   17 ar
    26   12   13 ar
    27   13   14 ar
    28   13   33 1
    29   14   15 ar
    30   14   34 1
    31   15   16 ar
    32   15   35 1
    33   16   17 ar
    34   16   18 1
    35   17   36 1
    36   18   37 1
    37   18   38 1
    38   18   39 1
    39   19   20 2
    40   19   21 1
@<TRIPOS>MOLECULE
ZINC41947074
   31    32     0     0     0
SMALL
USER_CHARGES

@<TRIPOS>ATOM
      1 C1          0.0697    1.5361    0.0322 C.3       1 <0>        -0.1724
      2 C2         -0.0018    0.0082   -0.0045 C.3       1 <0>         0.0764
      3 C3          0.7680   -0.5588    1.1604 C.ar      1 <0>        -0.0471
      4 C4          0.8591    0.1544    2.3414 C.ar      1 <0>        -0.1167
      5 C5          1.5648   -0.3644    3.4107 C.ar      1 <0>        -0.0919
      6 C6          2.1809   -1.5968    3.3002 C.ar      1 <0>        -0.1638
      7 C7          2.0904   -2.3118    2.1182 C.ar      1 <0>         0.0979
      8 C8          1.3779   -1.7937    1.0497 C.ar      1 <0>        -0.1419
      9 F1          2.6925   -3.5162    2.0089 F         1 <0>        -0.1434
     10 C9         -1.4411   -0.4296    0.0838 C.2       1 <0>         0.5230
     11 O1         -1.9347   -1.0868   -0.8167 O.co2     1 <0>        -0.6559
     12 O2         -2.1120   -0.1266    1.0557 O.co2     1 <0>        -0.6674
     13 O3          0.5662   -0.4660   -1.2270 O.3       1 <0>        -0.2510
     14 C10         1.8731   -0.1701   -1.4559 C.ar      1 <0>         0.1565
     15 C11         2.6267    0.4533   -0.4724 C.ar      1 <0>        -0.1960
     16 C12         3.9547    0.7533   -0.7068 C.ar      1 <0>        -0.0669
     17 C13         4.5338    0.4325   -1.9219 C.ar      1 <0>        -0.0744
     18 C14         3.7847   -0.1893   -2.9048 C.ar      1 <0>        -0.0673
     19 C15         2.4569   -0.4965   -2.6722 C.ar      1 <0>        -0.0689
     20 Cl1         1.5187   -1.2832   -3.9029 Cl        1 <0>        -0.0446
     21 Cl2         6.2027    0.8114   -2.2136 Cl        1 <0>        -0.0743
     22 H1          1.1125    1.8500    0.0780 H         1 <0>         0.0638
     23 H2         -0.3932    1.9431   -0.8668 H         1 <0>         0.0685
     24 H3         -0.4594    1.9036    0.9115 H         1 <0>         0.0844
     25 H4          0.3786    1.1177    2.4284 H         1 <0>         0.1351
     26 H5          1.6353    0.1936    4.3327 H         1 <0>         0.1317
     27 H6          2.7329   -2.0016    4.1355 H         1 <0>         0.1307
     28 H7          1.3029   -2.3526    0.1286 H         1 <0>         0.1349
     29 H8          2.1753    0.7043    0.4761 H         1 <0>         0.1610
     30 H9          4.5413    1.2390    0.0589 H         1 <0>         0.1361
     31 H10         4.2384   -0.4386   -3.8526 H         1 <0>         0.1441
@<TRIPOS>BOND
     1    1    2 1
     2    1   22 1
     3    1   23 1
     4    1   24 1
     5    2    3 1
     6    2   10 1
     7    2   13 1
     8    3    8 ar
     9    3    4 ar
    10    4    5 ar
    11    4   25 1
    12    5    6 ar
    13    5   26 1
    14    6    7 ar
    15    6   27 1
    16    7    8 ar
    17    7    9 1
    18    8   28 1
    19   10   11 2
    20   10   12 1
    21   13   14 1
    22   14   19 ar
    23   14   15 ar
    24   15   16 ar
    25   15   29 1
    26   16   17 ar
    27   16   30 1
    28   17   18 ar
    29   17   21 1
    30   18   19 ar
    31   18   31 1
    32   19   20 1
@<TRIPOS>MOLECULE
ZINC57628194
   43    44     0     0     0
SMALL
USER_CHARGES

@<TRIPOS>ATOM
      1 C1         -0.1393    1.5714   -0.7873 C.3       1 <0>        -0.1107
      2 C2         -0.1323    0.0682   -0.6808 C.ar      1 <0>        -0.1013
      3 C3          0.0675   -0.7038   -1.8100 C.ar      1 <0>        -0.1200
      4 C4          0.0740   -2.0826   -1.7123 C.ar      1 <0>        -0.1128
      5 C5         -0.1189   -2.6895   -0.4854 C.ar      1 <0>        -0.0741
      6 C6         -0.3178   -1.9176    0.6440 C.ar      1 <0>        -0.1142
      7 C7         -0.3199   -0.5386    0.5470 C.ar      1 <0>        -0.1199
      8 C8         -0.1128   -4.1928   -0.3790 C.3       1 <0>        -0.0824
      9 C9          1.3123   -4.6792   -0.1083 C.3       1 <0>        -0.0876
     10 C10         1.3184   -6.2053   -0.0004 C.3       1 <0>         0.0160
     11 H1          0.6008   -6.5189    0.7578 H         1 <0>         0.0652
     12 C11         2.6966   -6.6760    0.3873 C.2       1 <0>         0.4809
     13 O1          3.1584   -6.3791    1.4759 O.co2     1 <0>        -0.6924
     14 O2          3.3498   -7.3536   -0.3877 O.co2     1 <0>        -0.6724
     15 O3          0.9582   -6.7735   -1.2611 O.3       1 <0>        -0.2937
     16 C12         0.4193   -8.0210   -1.2443 C.ar      1 <0>         0.1724
     17 C13         0.3398   -8.7275   -0.0530 C.ar      1 <0>        -0.2057
     18 C14        -0.2088   -9.9952   -0.0384 C.ar      1 <0>        -0.0471
     19 C15        -0.6781  -10.5602   -1.2099 C.ar      1 <0>        -0.1768
     20 C16        -0.5995   -9.8583   -2.3986 C.ar      1 <0>        -0.0534
     21 C17        -0.0574   -8.5878   -2.4174 C.ar      1 <0>        -0.1725
     22 C18        -1.1115  -10.4773   -3.6737 C.3       1 <0>        -0.1075
     23 C19        -0.2955  -10.7632    1.2553 C.3       1 <0>        -0.1127
     24 H2          0.8735    1.9502   -0.6498 H         1 <0>         0.0671
     25 H3         -0.5063    1.8643   -1.7709 H         1 <0>         0.0626
     26 H4         -0.7902    1.9871   -0.0181 H         1 <0>         0.0626
     27 H5          0.2182   -0.2296   -2.7685 H         1 <0>         0.1181
     28 H6          0.2293   -2.6858   -2.5946 H         1 <0>         0.1222
     29 H7         -0.4688   -2.3917    1.6025 H         1 <0>         0.1217
     30 H8         -0.4716    0.0646    1.4299 H         1 <0>         0.1181
     31 H9         -0.7638   -4.5018    0.4388 H         1 <0>         0.0678
     32 H10        -0.4729   -4.6245   -1.3129 H         1 <0>         0.0757
     33 H11         1.9632   -4.3701   -0.9262 H         1 <0>         0.0684
     34 H12         1.6723   -4.2474    0.8255 H         1 <0>         0.0854
     35 H13         0.7068   -8.2869    0.8622 H         1 <0>         0.1259
     36 H14        -1.1063  -11.5516   -1.1965 H         1 <0>         0.1141
     37 H15        -0.0003   -8.0382   -3.3453 H         1 <0>         0.1224
     38 H16        -2.1634  -10.2231   -3.8042 H         1 <0>         0.0662
     39 H17        -0.5380  -10.0959   -4.5185 H         1 <0>         0.0642
     40 H18        -1.0034  -11.5607   -3.6206 H         1 <0>         0.0631
     41 H19        -1.2447  -10.5447    1.7447 H         1 <0>         0.0668
     42 H20        -0.2308  -11.8315    1.0486 H         1 <0>         0.0634
     43 H21         0.5262  -10.4690    1.9082 H         1 <0>         0.0667
@<TRIPOS>BOND
     1    1    2 1
     2    1   24 1
     3    1   25 1
     4    1   26 1
     5    2    7 ar
     6    2    3 ar
     7    3    4 ar
     8    3   27 1
     9    4    5 ar
    10    4   28 1
    11    5    6 ar
    12    5    8 1
    13    6    7 ar
    14    6   29 1
    15    7   30 1
    16    8    9 1
    17    8   31 1
    18    8   32 1
    19    9   10 1
    20    9   33 1
    21    9   34 1
    22   10   11 1
    23   10   12 1
    24   10   15 1
    25   12   13 2
    26   12   14 1
    27   15   16 1
    28   16   21 ar
    29   16   17 ar
    30   17   18 ar
    31   17   35 1
    32   18   19 ar
    33   18   23 1
    34   19   20 ar
    35   19   36 1
    36   20   21 ar
    37   20   22 1
    38   21   37 1
    39   22   38 1
    40   22   39 1
    41   22   40 1
    42   23   41 1
    43   23   42 1
    44   23   43 1
@<TRIPOS>MOLECULE
ZINC62469953
   41    42     0     0     0
SMALL
USER_CHARGES

@<TRIPOS>ATOM
      1 C1         -0.0187    1.5258    0.0104 C.3       1 <0>        -0.1452
      2 C2          0.0021   -0.0041    0.0020 C.3       1 <0>         0.0024
      3 C3          0.7421   -0.5109    1.2415 C.3       1 <0>        -0.1452
      4 C4         -1.4117   -0.5257    0.0127 C.2       1 <0>         0.0045
      5 N1         -2.0022   -1.2909   -0.8775 N.2       1 <0>        -0.5140
      6 C5         -3.2466   -1.6719   -0.7405 C.2       1 <0>         0.0648
      7 C6         -3.9055   -1.2217    0.3978 C.2       1 <0>        -0.2048
      8 S1         -2.6058   -0.2720    1.1713 S.3       1 <0>         0.1091
      9 C7         -5.2775   -1.4625    0.8404 C.2       1 <0>         0.5609
     10 O1         -6.0267   -2.1557    0.1634 O.co2     1 <0>        -0.6527
     11 O2         -5.6780   -0.9712    1.8884 O.co2     1 <0>        -0.6773
     12 C8         -3.9271   -2.5491   -1.7596 C.3       1 <0>        -0.0371
     13 C9         -3.7199   -4.0186   -1.3874 C.3       1 <0>        -0.0968
     14 C10        -4.4109   -4.9091   -2.4220 C.3       1 <0>        -0.0795
     15 C11        -5.9231   -4.6849   -2.3592 C.3       1 <0>        -0.1128
     16 C12        -6.6140   -5.5754   -3.3939 C.3       1 <0>        -0.1190
     17 C13        -6.3030   -7.0429   -3.0927 C.3       1 <0>        -0.1189
     18 C14        -4.7908   -7.2670   -3.1555 C.3       1 <0>        -0.1163
     19 C15        -4.0999   -6.3765   -2.1208 C.3       1 <0>        -0.1141
     20 H1          1.0039    1.9031    0.0027 H         1 <0>         0.0644
     21 H2         -0.5459    1.8868   -0.8726 H         1 <0>         0.0584
     22 H3         -0.5289    1.8773    0.9072 H         1 <0>         0.0603
     23 H4          0.5123   -0.3556   -0.8948 H         1 <0>         0.0929
     24 H5          0.2319   -0.1594    2.1383 H         1 <0>         0.0603
     25 H6          0.7568   -1.6008    1.2356 H         1 <0>         0.0583
     26 H7          1.7647   -0.1336    1.2338 H         1 <0>         0.0645
     27 H8         -4.9938   -2.3255   -1.7769 H         1 <0>         0.1041
     28 H9         -3.5002   -2.3601   -2.7446 H         1 <0>         0.0574
     29 H10        -2.6533   -4.2421   -1.3700 H         1 <0>         0.0493
     30 H11        -4.1468   -4.2075   -0.4024 H         1 <0>         0.0661
     31 H12        -4.0474   -4.6577   -3.4184 H         1 <0>         0.0623
     32 H13        -6.2866   -4.9363   -1.3629 H         1 <0>         0.0676
     33 H14        -6.1446   -3.6395   -2.5738 H         1 <0>         0.0704
     34 H15        -7.6913   -5.4158   -3.3492 H         1 <0>         0.0576
     35 H16        -6.2505   -5.3241   -4.3903 H         1 <0>         0.0552
     36 H17        -6.6665   -7.2943   -2.0963 H         1 <0>         0.0604
     37 H18        -6.7952   -7.6773   -3.8298 H         1 <0>         0.0534
     38 H19        -4.5693   -8.3125   -2.9409 H         1 <0>         0.0546
     39 H20        -4.4273   -7.0157   -4.1519 H         1 <0>         0.0574
     40 H21        -3.0226   -6.5362   -2.1655 H         1 <0>         0.0557
     41 H22        -4.4634   -6.6279   -1.1244 H         1 <0>         0.0611
@<TRIPOS>BOND
     1    1    2 1
     2    1   20 1
     3    1   21 1
     4    1   22 1
     5    2    3 1
     6    2    4 1
     7    2   23 1
     8    3   24 1
     9    3   25 1
    10    3   26 1
    11    4    8 1
    12    4    5 2
    13    5    6 1
    14    6    7 2
    15    6   12 1
    16    7    8 1
    17    7    9 1
    18    9   10 2
    19    9   11 1
    20   12   13 1
    21   12   27 1
    22   12   28 1
    23   13   14 1
    24   13   29 1
    25   13   30 1
    26   14   19 1
    27   14   15 1
    28   14   31 1
    29   15   16 1
    30   15   32 1
    31   15   33 1
    32   16   17 1
    33   16   34 1
    34   16   35 1
    35   17   18 1
    36   17   36 1
    37   17   37 1
    38   18   19 1
    39   18   38 1
    40   18   39 1
    41   19   40 1
    42   19   41 1
@<TRIPOS>MOLECULE
ZINC21508342
   31    33     0     0     0
SMALL
USER_CHARGES
2-(1-naphthyloxy)benzoic acid
@<TRIPOS>ATOM
      1 C1         -0.0688    1.0637   -0.1131 C.ar      1 <0>        -0.1090
      2 C2         -1.2829    1.7477   -0.1015 C.ar      1 <0>        -0.1238
      3 C3         -1.3202    3.1077   -0.0511 C.ar      1 <0>        -0.0834
      4 C4         -0.1197    3.8352   -0.0201 C.ar      1 <0>        -0.0676
      5 C5          1.1152    3.1408   -0.0374 C.ar      1 <0>        -0.0397
      6 C6          1.1143    1.7359   -0.0846 C.ar      1 <0>        -0.1166
      7 C7          2.3174    3.8675   -0.0076 C.ar      1 <0>        -0.1193
      8 C8          2.2878    5.2279    0.0376 C.ar      1 <0>        -0.0984
      9 C9          1.0801    5.9200    0.0545 C.ar      1 <0>        -0.1333
     10 C10        -0.1193    5.2444    0.0268 C.ar      1 <0>         0.1113
     11 O1         -1.2915    5.9294    0.0437 O.3       1 <0>        -0.2143
     12 C11        -1.9364    6.0587    1.2298 C.ar      1 <0>         0.1483
     13 C12        -1.3425    5.6058    2.3990 C.ar      1 <0>        -0.2134
     14 C13        -1.9981    5.7424    3.6061 C.ar      1 <0>        -0.0879
     15 C14        -3.2558    6.3217    3.6595 C.ar      1 <0>        -0.1715
     16 C15        -3.8632    6.7724    2.5080 C.ar      1 <0>        -0.0441
     17 C16        -3.2090    6.6455    1.2795 C.ar      1 <0>        -0.1402
     18 C17        -3.8526    7.1259    0.0436 C.2       1 <0>         0.4898
     19 O2         -3.2804    7.0140   -1.0225 O.co2     1 <0>        -0.6118
     20 O3         -5.0757    7.6892    0.0959 O.co2     1 <0>        -0.7605
     21 H1         -0.0667   -0.0156   -0.1497 H         1 <0>         0.1217
     22 H2         -2.2078    1.1907   -0.1292 H         1 <0>         0.1238
     23 H3         -2.2685    3.6245   -0.0385 H         1 <0>         0.1316
     24 H4          2.0476    1.1926   -0.0979 H         1 <0>         0.1264
     25 H5          3.2639    3.3474   -0.0201 H         1 <0>         0.1277
     26 H6          3.2163    5.7791    0.0603 H         1 <0>         0.1279
     27 H7          1.0840    6.9994    0.0902 H         1 <0>         0.1327
     28 H8         -0.3642    5.1494    2.3652 H         1 <0>         0.1197
     29 H9         -1.5297    5.3920    4.5139 H         1 <0>         0.1169
     30 H10        -3.7624    6.4200    4.6082 H         1 <0>         0.1188
     31 H11        -4.8437    7.2229    2.5545 H         1 <0>         0.1380
@<TRIPOS>BOND
     1    1    6 ar
     2    1    2 ar
     3    1   21 1
     4    2    3 ar
     5    2   22 1
     6    3    4 ar
     7    3   23 1
     8    4   10 ar
     9    4    5 ar
    10    5    6 ar
    11    5    7 ar
    12    6   24 1
    13    7    8 ar
    14    7   25 1
    15    8    9 ar
    16    8   26 1
    17    9   10 ar
    18    9   27 1
    19   10   11 1
    20   11   12 1
    21   12   17 ar
    22   12   13 ar
    23   13   14 ar
    24   13   28 1
    25   14   15 ar
    26   14   29 1
    27   15   16 ar
    28   15   30 1
    29   16   17 ar
    30   16   31 1
    31   17   18 1
    32   18   19 2
    33   18   20 1
@<TRIPOS>MOLECULE
ZINC41141800
   45    47     0     0     0
SMALL
USER_CHARGES

@<TRIPOS>ATOM
      1 C1         -3.0537   -0.1241   -3.6856 C.3       1 <0>        -0.1069
      2 C2         -2.4608   -1.3244   -2.9935 C.ar      1 <0>        -0.0908
      3 C3         -1.5363   -1.1515   -1.9805 C.ar      1 <0>        -0.1288
      4 C4         -0.9925   -2.2525   -1.3457 C.ar      1 <0>        -0.0460
      5 C5         -1.3736   -3.5264   -1.7237 C.ar      1 <0>        -0.0864
      6 C6         -2.2987   -3.6993   -2.7361 C.ar      1 <0>        -0.0949
      7 C7         -2.8457   -2.5982   -3.3680 C.ar      1 <0>        -0.1309
      8 C8         -0.7800   -4.7268   -1.0323 C.3       1 <0>         0.1864
      9 H1         -0.9945   -5.6368   -1.5926 H         1 <0>         0.0723
     10 C9         -1.3088   -4.8396    0.4120 C.3       1 <0>        -0.1729
     11 H2         -1.7861   -5.8066    0.5704 H         1 <0>         0.0893
     12 C10        -0.0646   -4.7159    1.2623 C.2       1 <0>         0.1162
     13 N1          0.9522   -4.5667    0.5164 N.2       1 <0>        -0.2564
     14 N2          0.6714   -4.5575   -0.8521 N.pl3     1 <0>        -0.4992
     15 C11         1.6072   -4.4113   -1.8778 C.ar      1 <0>         0.2269
     16 C12         1.4539   -3.4030   -2.8220 C.ar      1 <0>        -0.1420
     17 C13         2.3813   -3.2615   -3.8350 C.ar      1 <0>        -0.0776
     18 C14         3.4619   -4.1216   -3.9109 C.ar      1 <0>        -0.1418
     19 C15         3.6175   -5.1259   -2.9732 C.ar      1 <0>        -0.1061
     20 C16         2.6969   -5.2699   -1.9538 C.ar      1 <0>        -0.1068
     21 C17         2.8710   -6.3606   -0.9285 C.3       1 <0>        -0.1116
     22 C18         2.2158   -2.1688   -4.8596 C.3       1 <0>        -0.1101
     23 C19        -0.0357   -4.7622    2.7683 C.3       1 <0>        -0.0656
     24 C20        -2.2720   -3.7200    0.7119 C.2       1 <0>         0.5204
     25 O1         -3.4560   -3.8482    0.4507 O.co2     1 <0>        -0.6866
     26 O2         -1.8672   -2.6862    1.2157 O.co2     1 <0>        -0.6773
     27 H3         -3.9547    0.1906   -3.1591 H         1 <0>         0.0657
     28 H4         -2.3292    0.6903   -3.6847 H         1 <0>         0.0600
     29 H5         -3.3058   -0.3851   -4.7134 H         1 <0>         0.0594
     30 H6         -1.2386   -0.1562   -1.6852 H         1 <0>         0.1126
     31 H7         -0.2697   -2.1175   -0.5547 H         1 <0>         0.1203
     32 H8         -2.5962   -4.6946   -3.0317 H         1 <0>         0.1119
     33 H9         -3.5713   -2.7332   -4.1565 H         1 <0>         0.1132
     34 H10         0.6103   -2.7313   -2.7636 H         1 <0>         0.1333
     35 H11         4.1855   -4.0088   -4.7046 H         1 <0>         0.1162
     36 H12         4.4622   -5.7960   -3.0357 H         1 <0>         0.1183
     37 H13         2.3669   -7.2645   -1.2704 H         1 <0>         0.0574
     38 H14         3.9329   -6.5659   -0.7932 H         1 <0>         0.0559
     39 H15         2.4392   -6.0402    0.0196 H         1 <0>         0.0850
     40 H16         2.7242   -1.2681   -4.5156 H         1 <0>         0.0669
     41 H17         2.6480   -2.4906   -5.8070 H         1 <0>         0.0626
     42 H18         1.1554   -1.9574   -4.9972 H         1 <0>         0.0651
     43 H19         0.0957   -5.7929    3.0977 H         1 <0>         0.0695
     44 H20         0.7924   -4.1553    3.1347 H         1 <0>         0.0706
     45 H21        -0.9742   -4.3718    3.1619 H         1 <0>         0.0829
@<TRIPOS>BOND
     1    1    2 1
     2    1   27 1
     3    1   28 1
     4    1   29 1
     5    2    7 ar
     6    2    3 ar
     7    3    4 ar
     8    3   30 1
     9    4    5 ar
    10    4   31 1
    11    5    6 ar
    12    5    8 1
    13    6    7 ar
    14    6   32 1
    15    7   33 1
    16    8    9 1
    17    8   14 1
    18    8   10 1
    19   10   11 1
    20   10   12 1
    21   10   24 1
    22   12   13 2
    23   12   23 1
    24   13   14 1
    25   14   15 1
    26   15   20 ar
    27   15   16 ar
    28   16   17 ar
    29   16   34 1
    30   17   18 ar
    31   17   22 1
    32   18   19 ar
    33   18   35 1
    34   19   20 ar
    35   19   36 1
    36   20   21 1
    37   21   37 1
    38   21   38 1
    39   21   39 1
    40   22   40 1
    41   22   41 1
    42   22   42 1
    43   23   43 1
    44   23   44 1
    45   23   45 1
    46   24   25 2
    47   24   26 1
@<TRIPOS>MOLECULE
ZINC41955994
   31    32     0     0     0
SMALL
USER_CHARGES

@<TRIPOS>ATOM
      1 C1         -0.1923    1.5468   -0.1252 C.3       1 <0>        -0.1192
      2 C2         -0.2052    0.0168   -0.1252 C.3       1 <0>         0.0734
      3 C3          0.3879   -0.4905    1.1639 C.ar      1 <0>        -0.1296
      4 C4          1.5152   -1.2900    1.1389 C.ar      1 <0>        -0.0877
      5 C5          2.0594   -1.7554    2.3211 C.ar      1 <0>        -0.1391
      6 C6          1.4770   -1.4220    3.5300 C.ar      1 <0>        -0.0983
      7 C7          0.3503   -0.6225    3.5576 C.ar      1 <0>        -0.1678
      8 C8         -0.1927   -0.1513    2.3740 C.ar      1 <0>         0.1342
      9 F1         -1.2915    0.6343    2.4000 F         1 <0>        -0.1056
     10 C9         -1.6245   -0.4736   -0.2525 C.2       1 <0>         0.4840
     11 O1         -1.9457   -1.1719   -1.1989 O.co2     1 <0>        -0.6615
     12 O2         -2.4516   -0.1721    0.5910 O.co2     1 <0>        -0.6568
     13 O3          0.5662   -0.4660   -1.2270 O.3       1 <0>        -0.2810
     14 C10         0.5627   -1.8082   -1.4416 C.ar      1 <0>         0.1917
     15 C11        -0.0693   -2.6540   -0.5417 C.ar      1 <0>        -0.1284
     16 C12        -0.0719   -4.0180   -0.7612 C.ar      1 <0>        -0.0813
     17 C13         0.5546   -4.5417   -1.8770 C.ar      1 <0>        -0.1467
     18 C14         1.1864   -3.7015   -2.7766 C.ar      1 <0>        -0.0055
     19 C15         1.1864   -2.3342   -2.5642 C.ar      1 <0>        -0.0791
     20 Cl1         1.9722   -1.2788   -3.6966 Cl        1 <0>        -0.0565
     21 Cl2         1.9727   -4.3624   -4.1761 Cl        1 <0>        -0.0651
     22 H1          0.8199    1.9016    0.0686 H         1 <0>         0.0541
     23 H2         -0.5260    1.9129   -1.0962 H         1 <0>         0.0659
     24 H3         -0.8617    1.9158    0.6518 H         1 <0>         0.0889
     25 H4          1.9707   -1.5514    0.1952 H         1 <0>         0.1284
     26 H5          2.9400   -2.3803    2.3006 H         1 <0>         0.1244
     27 H6          1.9027   -1.7868    4.4531 H         1 <0>         0.1264
     28 H7         -0.1046   -0.3625    4.5019 H         1 <0>         0.1317
     29 H8         -0.5588   -2.2463    0.3304 H         1 <0>         0.1415
     30 H9         -0.5638   -4.6761   -0.0602 H         1 <0>         0.1309
     31 H10         0.5512   -5.6083   -2.0463 H         1 <0>         0.1335
@<TRIPOS>BOND
     1    1    2 1
     2    1   22 1
     3    1   23 1
     4    1   24 1
     5    2    3 1
     6    2   10 1
     7    2   13 1
     8    3    8 ar
     9    3    4 ar
    10    4    5 ar
    11    4   25 1
    12    5    6 ar
    13    5   26 1
    14    6    7 ar
    15    6   27 1
    16    7    8 ar
    17    7   28 1
    18    8    9 1
    19   10   11 2
    20   10   12 1
    21   13   14 1
    22   14   19 ar
    23   14   15 ar
    24   15   16 ar
    25   15   29 1
    26   16   17 ar
    27   16   30 1
    28   17   18 ar
    29   17   31 1
    30   18   19 ar
    31   18   21 1
    32   19   20 1
@<TRIPOS>MOLECULE
ZINC06408393
   32    34     0     0     0
SMALL
USER_CHARGES

@<TRIPOS>ATOM
      1 C1         -1.6109    1.1862   -2.3779 C.3       1 <0>        -0.1608
      2 S1         -1.1584   -0.4261   -1.6806 S.3       1 <0>        -0.0789
      3 C2          0.5396   -0.6155   -2.1116 C.ar      1 <0>        -0.1140
      4 C3          1.1925    0.3787   -2.8254 C.ar      1 <0>        -0.1151
      5 C4          2.5244    0.2284   -3.1625 C.ar      1 <0>        -0.1502
      6 C5          3.2167   -0.9119   -2.7915 C.ar      1 <0>        -0.1001
      7 C6          2.5835   -1.9111   -2.0813 C.ar      1 <0>        -0.1680
      8 C7          1.2398   -1.7707   -1.7291 C.ar      1 <0>         0.1729
      9 N1          0.6085   -2.7542   -1.0208 N.2       1 <0>        -0.5856
     10 C8          0.7192   -4.0038   -1.3946 C.2       1 <0>         0.3257
     11 C9          0.1588   -5.0323   -0.6002 C.2       1 <0>        -0.3713
     12 C10         0.1779   -6.3905   -0.8243 C.2       1 <0>         0.3169
     13 C11        -0.4715   -7.2614    0.1416 C.ar      1 <0>        -0.1387
     14 C12        -0.5789   -8.6745    0.1212 C.ar      1 <0>        -0.0444
     15 C13        -1.2277   -9.3362    1.1148 C.ar      1 <0>        -0.1579
     16 C14        -1.8064   -8.6590    2.1809 C.ar      1 <0>        -0.0930
     17 C15        -1.7241   -7.2823    2.2383 C.ar      1 <0>        -0.1040
     18 C16        -1.0683   -6.5969    1.2363 C.ar      1 <0>        -0.0853
     19 S2         -0.7345   -4.8808    0.9347 S.3       1 <0>         0.0084
     20 O1          0.7890   -6.9048   -1.9226 O.3       1 <0>        -0.6575
     21 H1         -0.9860    1.9618   -1.9354 H         1 <0>         0.0756
     22 H2         -1.4605    1.1703   -3.4574 H         1 <0>         0.0751
     23 H3         -2.6583    1.3952   -2.1601 H         1 <0>         0.1017
     24 H4          0.6593    1.2711   -3.1183 H         1 <0>         0.1156
     25 H5          3.0281    1.0049   -3.7189 H         1 <0>         0.1149
     26 H6          4.2572   -1.0199   -3.0598 H         1 <0>         0.1158
     27 H7          3.1278   -2.7988   -1.7946 H         1 <0>         0.1209
     28 H8          1.2382   -4.2499   -2.3092 H         1 <0>         0.0968
     29 H9         -0.1404   -9.2316   -0.6935 H         1 <0>         0.1209
     30 H10        -1.2954  -10.4134    1.0747 H         1 <0>         0.1168
     31 H11        -2.3176   -9.2060    2.9593 H         1 <0>         0.1235
     32 H12        -2.1705   -6.7451    3.0620 H         1 <0>         0.1232
@<TRIPOS>BOND
     1    1    2 1
     2    1   21 1
     3    1   22 1
     4    1   23 1
     5    2    3 1
     6    3    8 ar
     7    3    4 ar
     8    4    5 ar
     9    4   24 1
    10    5    6 ar
    11    5   25 1
    12    6    7 ar
    13    6   26 1
    14    7    8 ar
    15    7   27 1
    16    8    9 1
    17    9   10 2
    18   10   11 1
    19   10   28 1
    20   11   19 1
    21   11   12 2
    22   12   13 1
    23   12   20 1
    24   13   18 ar
    25   13   14 ar
    26   14   15 ar
    27   14   29 1
    28   15   16 ar
    29   15   30 1
    30   16   17 ar
    31   16   31 1
    32   17   18 ar
    33   17   32 1
    34   18   19 1
@<TRIPOS>MOLECULE
ZINC58002032
   34    35     0     0     0
SMALL
USER_CHARGES

@<TRIPOS>ATOM
      1 C1         -1.6627    0.8852   -0.2138 C.3       1 <0>        -0.0798
      2 C2         -0.6995   -0.2675   -0.0936 C.2       1 <0>         0.1109
      3 C3         -0.0679   -0.7562   -1.2051 C.2       1 <0>        -0.2215
      4 S1          0.9119   -2.0644   -0.4793 S.3       1 <0>        -0.1174
      5 C4          0.3816   -1.8243    1.2111 C.2       1 <0>         0.3387
      6 N1         -0.4564   -0.8069    1.0803 N.2       1 <0>        -0.5644
      7 S2          0.8530   -2.7024    2.6642 S.3       1 <0>        -0.7114
      8 C5         -0.1678   -0.3227   -2.6146 C.ar      1 <0>         0.0073
      9 C6         -0.0841    1.0329   -2.9377 C.ar      1 <0>        -0.0707
     10 C7         -0.1778    1.4329   -4.2539 C.ar      1 <0>        -0.1469
     11 C8         -0.3551    0.4899   -5.2572 C.ar      1 <0>         0.1153
     12 C9         -0.4393   -0.8591   -4.9402 C.ar      1 <0>        -0.2029
     13 C10        -0.3403   -1.2683   -3.6272 C.ar      1 <0>        -0.0726
     14 O1         -0.4470    0.8885   -6.5534 O.3       1 <0>        -0.3159
     15 C11        -0.6290   -0.1338   -7.5352 C.3       1 <0>         0.0630
     16 C12        -0.7098    0.5019   -8.9245 C.3       1 <0>        -0.0947
     17 C13         0.6308    1.1560   -9.2649 C.3       1 <0>        -0.1471
     18 C14        -1.0287   -0.5771   -9.9613 C.3       1 <0>        -0.1465
     19 H1         -1.1098    1.8243   -0.1930 H         1 <0>         0.0651
     20 H2         -2.2089    0.8058   -1.1537 H         1 <0>         0.0650
     21 H3         -2.3661    0.8592    0.6185 H         1 <0>         0.0668
     22 H4          0.0535    1.7672   -2.1578 H         1 <0>         0.1302
     23 H5         -0.1136    2.4815   -4.5047 H         1 <0>         0.1287
     24 H6         -0.5779   -1.5895   -5.7236 H         1 <0>         0.1243
     25 H7         -0.4007   -2.3183   -3.3819 H         1 <0>         0.1244
     26 H8          0.2131   -0.8250   -7.5004 H         1 <0>         0.0609
     27 H9         -1.5523   -0.6753   -7.3291 H         1 <0>         0.0604
     28 H10        -1.4953    1.2576   -8.9332 H         1 <0>         0.0803
     29 H11         0.5732    1.6089  -10.2547 H         1 <0>         0.0549
     30 H12         0.8580    1.9247   -8.5262 H         1 <0>         0.0633
     31 H13         1.4163    0.4003   -9.2562 H         1 <0>         0.0538
     32 H14        -1.9837   -1.0431   -9.7189 H         1 <0>         0.0576
     33 H15        -1.0862   -0.1242  -10.9511 H         1 <0>         0.0631
     34 H16        -0.2431   -1.3327   -9.9527 H         1 <0>         0.0578
@<TRIPOS>BOND
     1    1    2 1
     2    1   19 1
     3    1   20 1
     4    1   21 1
     5    2    6 1
     6    2    3 2
     7    3    4 1
     8    3    8 1
     9    4    5 1
    10    5    6 2
    11    5    7 1
    12    8   13 ar
    13    8    9 ar
    14    9   10 ar
    15    9   22 1
    16   10   11 ar
    17   10   23 1
    18   11   12 ar
    19   11   14 1
    20   12   13 ar
    21   12   24 1
    22   13   25 1
    23   14   15 1
    24   15   16 1
    25   15   26 1
    26   15   27 1
    27   16   17 1
    28   16   18 1
    29   16   28 1
    30   17   29 1
    31   17   30 1
    32   17   31 1
    33   18   32 1
    34   18   33 1
    35   18   34 1
@<TRIPOS>MOLECULE
ZINC06173698
   38    40     0     0     0
SMALL
USER_CHARGES
4-(cinnamylideneamino)-5-(p-tolyl)-1,2,4-triazole-3-thiol
@<TRIPOS>ATOM
      1 C1          3.5114    6.9045    6.6249 C.3       1 <0>        -0.1124
      2 C2          3.4939    7.3349    5.1808 C.ar      1 <0>        -0.0945
      3 C3          3.7902    8.6451    4.8490 C.ar      1 <0>        -0.1172
      4 C4          3.7760    9.0458    3.5291 C.ar      1 <0>        -0.0851
      5 C5          3.4612    8.1261    2.5271 C.ar      1 <0>         0.0144
      6 C6          3.1572    6.8072    2.8693 C.ar      1 <0>        -0.1165
      7 C7          3.1811    6.4183    4.1926 C.ar      1 <0>        -0.1151
      8 C8          3.4441    8.5482    1.1110 C.2       1 <0>         0.1527
      9 N1          3.4305    9.7836    0.6643 N.2       1 <0>        -0.2675
     10 N2          3.4185    9.7870   -0.6205 N.2       1 <0>        -0.3309
     11 C9          3.4296    8.5538   -1.0768 C.2       1 <0>         0.3811
     12 N3          3.4401    7.7204    0.0093 N.pl3     1 <0>        -0.3652
     13 N4          3.4507    6.3194    0.0021 N.2       1 <0>        -0.2220
     14 C10         2.3279    5.6597    0.0093 C.2       1 <0>         0.1573
     15 C11         2.3386    4.2418    0.0020 C.2       1 <0>        -0.1190
     16 C12         1.1758    3.5586    0.0095 C.2       1 <0>        -0.0558
     17 C13         1.1869    2.0866    0.0019 C.ar      1 <0>        -0.0620
     18 C14        -0.0166    1.3747    0.0096 C.ar      1 <0>        -0.1005
     19 C15         0.0021   -0.0041    0.0020 C.ar      1 <0>        -0.1235
     20 C16         1.2078   -0.6833   -0.0136 C.ar      1 <0>        -0.1156
     21 C17         2.4032    0.0142   -0.0208 C.ar      1 <0>        -0.1207
     22 C18         2.4011    1.3931   -0.0125 C.ar      1 <0>        -0.1032
     23 S1          3.4274    8.0653   -2.7698 S.3       1 <0>        -0.7905
     24 H1          3.7791    7.7620    7.2598 H         1 <0>         0.0637
     25 H2          4.2526    6.1029    6.7596 H         1 <0>         0.0669
     26 H3          2.5153    6.5345    6.9093 H         1 <0>         0.0668
     27 H4          4.0335    9.3556    5.6252 H         1 <0>         0.1244
     28 H5          4.0074   10.0688    3.2715 H         1 <0>         0.1342
     29 H6          2.9085    6.0919    2.0993 H         1 <0>         0.1203
     30 H7          2.9508    5.3971    4.4583 H         1 <0>         0.1215
     31 H8          1.3712    6.2024    0.0210 H         1 <0>         0.1171
     32 H9          3.2953    3.6991   -0.0098 H         1 <0>         0.1390
     33 H10         0.2191    4.1013    0.0213 H         1 <0>         0.1327
     34 H11        -0.9584    1.9034    0.0169 H         1 <0>         0.1267
     35 H12        -0.9266   -0.5554    0.0079 H         1 <0>         0.1233
     36 H13         1.2160   -1.7632   -0.0198 H         1 <0>         0.1212
     37 H14         3.3401   -0.5229   -0.0326 H         1 <0>         0.1242
     38 H15         3.3347    1.9360   -0.0174 H         1 <0>         0.1299
@<TRIPOS>BOND
     1    1    2 1
     2    1   24 1
     3    1   25 1
     4    1   26 1
     5    2    7 ar
     6    2    3 ar
     7    3    4 ar
     8    3   27 1
     9    4    5 ar
    10    4   28 1
    11    5    6 ar
    12    5    8 1
    13    6    7 ar
    14    6   29 1
    15    7   30 1
    16    8   12 1
    17    8    9 2
    18    9   10 1
    19   10   11 2
    20   11   12 1
    21   11   23 1
    22   12   13 1
    23   13   14 2
    24   14   15 1
    25   14   31 1
    26   15   16 2
    27   15   32 1
    28   16   17 1
    29   16   33 1
    30   17   22 ar
    31   17   18 ar
    32   18   19 ar
    33   18   34 1
    34   19   20 ar
    35   19   35 1
    36   20   21 ar
    37   20   36 1
    38   21   22 ar
    39   21   37 1
    40   22   38 1
@<TRIPOS>MOLECULE
ZINC28196334
   32    33     0     0     0
SMALL
USER_CHARGES
2-bromo-N-(2-chloro-4-methyl-phenyl)-4-methyl-benzenesulfonamide
@<TRIPOS>ATOM
      1 C1          6.8501    4.7203   -0.4237 C.3       1 <0>        -0.0927
      2 C2          5.6917    3.7624   -0.3166 C.ar      1 <0>        -0.1769
      3 C3          5.2582    3.0761   -1.4363 C.ar      1 <0>        -0.0677
      4 C4          4.1934    2.2013   -1.3432 C.ar      1 <0>        -0.2413
      5 C5          3.5642    2.0029   -0.1211 C.ar      1 <0>         0.2640
      6 C6          4.0053    2.6899    1.0036 C.ar      1 <0>        -0.0814
      7 C7          5.0680    3.5678    0.9021 C.ar      1 <0>        -0.0745
      8 Cl1         3.2223    2.4463    2.5337 Cl        1 <0>        -0.0878
      9 N1          2.4903    1.1141   -0.0225 N.2       1 <0>        -1.0134
     10 S1          2.4724   -0.2675   -0.9353 S.o2      1 <0>         2.5737
     11 O1          3.7637   -0.8487   -0.8177 O.2       1 <0>        -1.0298
     12 O2          1.2867   -0.9690   -0.5871 O.2       1 <0>        -0.9741
     13 C8          2.2919    0.2223   -2.6182 C.ar      1 <0>        -0.6407
     14 C9          3.2952   -0.0509   -3.5291 C.ar      1 <0>        -0.0301
     15 C10         3.1535    0.3329   -4.8494 C.ar      1 <0>        -0.1348
     16 C11         2.0081    0.9896   -5.2597 C.ar      1 <0>        -0.0545
     17 C12         1.0046    1.2631   -4.3498 C.ar      1 <0>        -0.1194
     18 C13         1.1439    0.8749   -3.0293 C.ar      1 <0>         0.0033
     19 Br1        -0.2320    1.2425   -1.7852 Br        1 <0>        -0.0185
     20 C14         1.8538    1.4069   -6.6996 C.3       1 <0>        -0.1160
     21 H1          7.2128    4.7424   -1.4619 H         1 <0>         0.0537
     22 H2          7.6617    4.3900    0.2413 H         1 <0>         0.0547
     23 H3          6.5213    5.7277   -0.1287 H         1 <0>         0.0541
     24 H4          5.7505    3.2273   -2.3855 H         1 <0>         0.1054
     25 H5          3.8534    1.6687   -2.2191 H         1 <0>         0.1171
     26 H6          5.4119    4.1019    1.7755 H         1 <0>         0.1145
     27 H7          4.1898   -0.5645   -3.2091 H         1 <0>         0.1424
     28 H8          3.9376    0.1194   -5.5607 H         1 <0>         0.1277
     29 H9          0.1098    1.7757   -4.6706 H         1 <0>         0.1307
     30 H10         0.8855    1.9114   -6.8334 H         1 <0>         0.0669
     31 H11         1.8962    0.5176   -7.3456 H         1 <0>         0.0721
     32 H12         2.6670    2.0962   -6.9707 H         1 <0>         0.0732
@<TRIPOS>BOND
     1    1    2 1
     2    1   21 1
     3    1   22 1
     4    1   23 1
     5    2    7 ar
     6    2    3 ar
     7    3    4 ar
     8    3   24 1
     9    4    5 ar
    10    4   25 1
    11    5    6 ar
    12    5    9 1
    13    6    7 ar
    14    6    8 1
    15    7   26 1
    16    9   10 1
    17   10   11 2
    18   10   12 2
    19   10   13 1
    20   13   18 ar
    21   13   14 ar
    22   14   15 ar
    23   14   27 1
    24   15   16 ar
    25   15   28 1
    26   16   17 ar
    27   16   20 1
    28   17   18 ar
    29   17   29 1
    30   18   19 1
    31   20   30 1
    32   20   31 1
    33   20   32 1
@<TRIPOS>MOLECULE
ZINC37653743
   33    34     0     0     0
SMALL
USER_CHARGES

@<TRIPOS>ATOM
      1 C1          0.3789    1.6755    0.4556 C.ar      1 <0>        -0.1402
      2 C2          1.6176    2.2877    0.4053 C.ar      1 <0>        -0.1198
      3 C3          2.7617    1.5233    0.2763 C.ar      1 <0>        -0.1375
      4 C4          2.6674    0.1450    0.1980 C.ar      1 <0>        -0.0377
      5 C5          1.4278   -0.4669    0.2488 C.ar      1 <0>        -0.0508
      6 C6          0.2841    0.2988    0.3773 C.ar      1 <0>        -0.0156
      7 C7          1.3242   -1.9679    0.1630 C.3       1 <0>        -0.0604
      8 C8          1.5168   -2.5728    1.5551 C.3       1 <0>        -0.1387
      9 H1          2.4610   -2.2255    1.9747 H         1 <0>         0.0752
     10 C9          1.5361   -4.0990    1.4498 C.3       1 <0>        -0.0707
     11 C10         2.7321   -4.5316    0.6414 C.ar      1 <0>        -0.0313
     12 C11         2.5908   -4.8166   -0.7039 C.ar      1 <0>        -0.1156
     13 C12         3.6878   -5.2130   -1.4455 C.ar      1 <0>        -0.1048
     14 C13         4.9269   -5.3246   -0.8423 C.ar      1 <0>        -0.1322
     15 C14         5.0691   -5.0400    0.5026 C.ar      1 <0>        -0.0924
     16 C15         3.9724   -4.6382    1.2441 C.ar      1 <0>        -0.0879
     17 Br1         4.1677   -4.2417    3.0827 Br        1 <0>        -0.0459
     18 C16         0.3821   -2.1453    2.4499 C.2       1 <0>         0.4981
     19 O1          0.0483   -2.8477    3.3889 O.co2     1 <0>        -0.6944
     20 O2         -0.2023   -1.0970    2.2349 O.co2     1 <0>        -0.6859
     21 Cl1         4.1041   -0.8158    0.0353 Cl        1 <0>        -0.0853
     22 H2         -0.5146    2.2730    0.5606 H         1 <0>         0.1169
     23 H3          1.6911    3.3634    0.4665 H         1 <0>         0.1173
     24 H4          3.7291    2.0017    0.2363 H         1 <0>         0.1190
     25 H5         -0.6838   -0.1788    0.4167 H         1 <0>         0.1381
     26 H6          0.3415   -2.2429   -0.2199 H         1 <0>         0.0625
     27 H7          2.0949   -2.3475   -0.5079 H         1 <0>         0.0628
     28 H8          1.5969   -4.5314    2.4485 H         1 <0>         0.0921
     29 H9          0.6240   -4.4410    0.9607 H         1 <0>         0.0662
     30 H10         1.6231   -4.7298   -1.1754 H         1 <0>         0.1277
     31 H11         3.5770   -5.4358   -2.4964 H         1 <0>         0.1226
     32 H12         5.7837   -5.6347   -1.4221 H         1 <0>         0.1232
     33 H13         6.0370   -5.1273    0.9737 H         1 <0>         0.1252
@<TRIPOS>BOND
     1    1    6 ar
     2    1    2 ar
     3    1   22 1
     4    2    3 ar
     5    2   23 1
     6    3    4 ar
     7    3   24 1
     8    4    5 ar
     9    4   21 1
    10    5    6 ar
    11    5    7 1
    12    6   25 1
    13    7    8 1
    14    7   26 1
    15    7   27 1
    16    8    9 1
    17    8   10 1
    18    8   18 1
    19   10   11 1
    20   10   28 1
    21   10   29 1
    22   11   16 ar
    23   11   12 ar
    24   12   13 ar
    25   12   30 1
    26   13   14 ar
    27   13   31 1
    28   14   15 ar
    29   14   32 1
    30   15   16 ar
    31   15   33 1
    32   16   17 1
    33   18   19 2
    34   18   20 1
@<TRIPOS>MOLECULE
ZINC40273710
   30    32     0     0     0
SMALL
USER_CHARGES

@<TRIPOS>ATOM
      1 C1         -0.0184    1.5028    0.0103 C.3       1 <0>        -0.1234
      2 C2          0.0021   -0.0041    0.0020 C.ar      1 <0>        -0.0597
      3 C3          0.0058   -0.6886   -1.1990 C.ar      1 <0>        -0.0914
      4 C4          0.0250   -2.0715   -1.2065 C.ar      1 <0>        -0.0846
      5 C5          0.0405   -2.7691   -0.0119 C.ar      1 <0>        -0.0964
      6 C6          0.0368   -2.0840    1.1883 C.ar      1 <0>        -0.0939
      7 C7          0.0229   -0.7014    1.1952 C.ar      1 <0>        -0.0688
      8 C8          0.0246    0.0453    2.5042 C.3       1 <0>         0.1014
      9 H1         -0.5784    0.9483    2.4082 H         1 <0>         0.1147
     10 C9          1.4383    0.4215    2.8660 C.ar      1 <0>        -0.1508
     11 C10         2.3669   -0.5717    3.1378 C.ar      1 <0>        -0.0806
     12 C11         3.6628   -0.2424    3.4694 C.ar      1 <0>        -0.1234
     13 C12         4.0416    1.0992    3.5318 C.ar      1 <0>         0.1108
     14 C13         3.0991    2.1009    3.2561 C.ar      1 <0>        -0.0430
     15 C14         1.8011    1.7520    2.9190 C.ar      1 <0>        -0.0541
     16 O1          3.7461    3.2808    3.3935 O.3       1 <0>        -0.2748
     17 C15         5.0199    3.0234    3.7356 C.2       1 <0>         0.5156
     18 O2          5.9662    3.9626    3.9591 O.3       1 <0>        -0.6436
     19 N1          5.2106    1.7341    3.8216 N.2       1 <0>        -0.6102
     20 Cl1        -0.6673   -1.0049    3.7962 Cl        1 <0>        -0.1735
     21 Br1         0.0295   -3.0084   -2.8491 Br        1 <0>        -0.0576
     22 H2          1.0042    1.8801    0.0026 H         1 <0>         0.0831
     23 H3         -0.5455    1.8639   -0.8728 H         1 <0>         0.0703
     24 H4         -0.5286    1.8543    0.9071 H         1 <0>         0.0716
     25 H5         -0.0067   -0.1436   -2.1313 H         1 <0>         0.1332
     26 H6          0.0551   -3.8490   -0.0173 H         1 <0>         0.1326
     27 H7          0.0485   -2.6285    2.1209 H         1 <0>         0.1402
     28 H8          2.0724   -1.6096    3.0895 H         1 <0>         0.1181
     29 H9          4.3825   -1.0194    3.6806 H         1 <0>         0.1212
     30 H10         1.0735    2.5201    2.7021 H         1 <0>         0.1172
@<TRIPOS>BOND
     1    1    2 1
     2    1   22 1
     3    1   23 1
     4    1   24 1
     5    2    7 ar
     6    2    3 ar
     7    3    4 ar
     8    3   25 1
     9    4    5 ar
    10    4   21 1
    11    5    6 ar
    12    5   26 1
    13    6    7 ar
    14    6   27 1
    15    7    8 1
    16    8    9 1
    17    8   10 1
    18    8   20 1
    19   10   15 ar
    20   10   11 ar
    21   11   12 ar
    22   11   28 1
    23   12   13 ar
    24   12   29 1
    25   13   19 1
    26   13   14 ar
    27   14   15 ar
    28   14   16 1
    29   15   30 1
    30   16   17 1
    31   17   18 1
    32   17   19 2
@<TRIPOS>MOLECULE
ZINC52394506
   31    32     0     0     0
SMALL
USER_CHARGES

@<TRIPOS>ATOM
      1 C1         -0.1806   -2.4933   -1.1662 C.3       1 <0>        -0.1150
      2 C2          0.9218   -2.5413   -0.1399 C.2       1 <0>        -0.0073
      3 C3          2.1349   -3.1375   -0.3958 C.2       1 <0>        -0.1961
      4 C4          3.0825   -3.1450    0.5726 C.2       1 <0>        -0.2120
      5 S1          2.3615   -2.3447    1.8617 S.3       1 <0>         0.2854
      6 C5          0.7807   -1.9821    1.1217 C.2       1 <0>        -0.2706
      7 C6         -0.3683   -1.2783    1.6966 C.2       1 <0>         0.4485
      8 C7         -0.3056   -0.7979    2.9721 C.2       1 <0>        -0.7902
      9 C8          0.9516   -0.7426    3.6554 C.1       1 <0>         0.2872
     10 N1          1.9489   -0.6987    4.1975 N.1       1 <0>        -0.3906
     11 S2         -1.7717   -0.2456    3.7784 S.o2      1 <0>         2.5942
     12 O1         -2.8635   -0.8286    3.0803 O.2       1 <0>        -0.9298
     13 O2         -1.5670   -0.4399    5.1711 O.2       1 <0>        -0.8941
     14 C9         -1.8825    1.4944    3.5237 C.ar      1 <0>        -0.6577
     15 C10        -2.9245    2.0194    2.7827 C.ar      1 <0>        -0.0095
     16 C11        -3.0115    3.3854    2.5827 C.ar      1 <0>        -0.0519
     17 C12        -2.0552    4.2263    3.1243 C.ar      1 <0>        -0.0380
     18 C13        -1.0135    3.7014    3.8650 C.ar      1 <0>        -0.1107
     19 C14        -0.9297    2.3354    4.0699 C.ar      1 <0>         0.0543
     20 Cl1         0.3751    1.6767    5.0065 Cl        1 <0>        -0.0167
     21 Cl2        -4.3199    4.0448    1.6516 Cl        1 <0>        -0.0403
     22 O3         -1.4926   -1.1045    0.9621 O.3       1 <0>        -0.4268
     23 H1         -0.0780   -1.5901   -1.7677 H         1 <0>         0.0847
     24 H2         -0.1145   -3.3691   -1.8117 H         1 <0>         0.0768
     25 H3         -1.1468   -2.4860   -0.6617 H         1 <0>         0.0896
     26 H4          2.3291   -3.5936   -1.3554 H         1 <0>         0.1447
     27 H5          4.0747   -3.5690    0.5265 H         1 <0>         0.1958
     28 H6         -3.6707    1.3631    2.3597 H         1 <0>         0.1675
     29 H7         -2.1229    5.2927    2.9678 H         1 <0>         0.1564
     30 H8         -0.2669    4.3576    4.2873 H         1 <0>         0.1577
     31 H9         -2.1552   -0.5411    1.3845 H         1 <0>         0.4144
@<TRIPOS>BOND
     1    1    2 1
     2    1   23 1
     3    1   24 1
     4    1   25 1
     5    2    6 2
     6    2    3 1
     7    3    4 2
     8    3   26 1
     9    4    5 1
    10    4   27 1
    11    5    6 1
    12    6    7 1
    13    7    8 2
    14    7   22 1
    15    8    9 1
    16    8   11 1
    17    9   10 3
    18   11   12 2
    19   11   13 2
    20   11   14 1
    21   14   19 ar
    22   14   15 ar
    23   15   16 ar
    24   15   28 1
    25   16   17 ar
    26   16   21 1
    27   17   18 ar
    28   17   29 1
    29   18   19 ar
    30   18   30 1
    31   19   20 1
    32   22   31 1
@<TRIPOS>MOLECULE
ZINC13564516
   33    35     0     0     0
SMALL
USER_CHARGES

@<TRIPOS>ATOM
      1 C1         -0.1159    2.6822   -1.0100 C.ar      1 <0>        -0.1017
      2 C2          1.1449    3.2100   -0.8010 C.ar      1 <0>        -0.0854
      3 C3          2.2543    2.3865   -0.8369 C.ar      1 <0>        -0.0550
      4 C4          2.1036    1.0332   -1.0816 C.ar      1 <0>        -0.0303
      5 C5          0.8412    0.5047   -1.2904 C.ar      1 <0>        -0.0314
      6 C6         -0.2682    1.3305   -1.2546 C.ar      1 <0>        -0.1065
      7 Cl1         0.6504   -1.1931   -1.5981 Cl        1 <0>        -0.0566
      8 Cl2         3.4968   -0.0015   -1.1273 Cl        1 <0>        -0.0425
      9 C7          3.6281    2.9628   -0.6099 C.3       1 <0>        -0.0489
     10 C8          4.0624    2.6931    0.8321 C.3       1 <0>        -0.1082
     11 H1          3.9994    1.6316    1.0714 H         1 <0>         0.1213
     12 C9          5.4570    3.2436    1.1056 C.2       1 <0>         0.5234
     13 O1          6.4416    2.8419    0.5167 O.2       1 <0>        -0.5383
     14 N1          5.5202    4.1765    2.0160 N.2       1 <0>        -0.7247
     15 C10         4.4746    4.6463    2.6835 C.2       1 <0>         0.4755
     16 S1          3.0977    3.7109    2.0271 S.3       1 <0>        -0.2456
     17 N2          4.4539    5.6148    3.6457 N.2       1 <0>        -0.5761
     18 C11         5.5976    6.3831    3.8897 C.ar      1 <0>         0.1691
     19 C12         5.7788    6.9873    5.1269 C.ar      1 <0>        -0.1331
     20 C13         6.9088    7.7448    5.3652 C.ar      1 <0>        -0.0978
     21 C14         7.8597    7.9023    4.3723 C.ar      1 <0>        -0.0814
     22 C15         7.6814    7.3018    3.1384 C.ar      1 <0>        -0.0942
     23 C16         6.5562    6.5382    2.8969 C.ar      1 <0>        -0.1452
     24 Cl3         9.2787    8.8556    4.6750 Cl        1 <0>        -0.1033
     25 H2         -0.9825    3.3258   -0.9777 H         1 <0>         0.1382
     26 H3          1.2629    4.2664   -0.6100 H         1 <0>         0.1423
     27 H4         -1.2533    0.9189   -1.4175 H         1 <0>         0.1391
     28 H5          4.3355    2.4966   -1.2957 H         1 <0>         0.0987
     29 H6          3.6049    4.0380   -0.7874 H         1 <0>         0.0878
     30 H7          5.0366    6.8652    5.9020 H         1 <0>         0.1242
     31 H8          7.0502    8.2148    6.3272 H         1 <0>         0.1218
     32 H9          8.4247    7.4269    2.3650 H         1 <0>         0.1187
     33 H10         6.4199    6.0657    1.9354 H         1 <0>         0.1461
@<TRIPOS>BOND
     1    1    6 ar
     2    1    2 ar
     3    1   25 1
     4    2    3 ar
     5    2   26 1
     6    3    4 ar
     7    3    9 1
     8    4    5 ar
     9    4    8 1
    10    5    6 ar
    11    5    7 1
    12    6   27 1
    13    9   10 1
    14    9   28 1
    15    9   29 1
    16   10   11 1
    17   10   16 1
    18   10   12 1
    19   12   13 2
    20   12   14 1
    21   14   15 2
    22   15   16 1
    23   15   17 1
    24   17   18 1
    25   18   23 ar
    26   18   19 ar
    27   19   20 ar
    28   19   30 1
    29   20   21 ar
    30   20   31 1
    31   21   22 ar
    32   21   24 1
    33   22   23 ar
    34   22   32 1
    35   23   33 1
@<TRIPOS>MOLECULE
ZINC06257996
   50    54     0     0     0
SMALL
USER_CHARGES
N-[2-(4-hydroxyphenyl)aminoacenaphthen-1-yl]benzenesulfonamide
@<TRIPOS>ATOM
      1 C1          7.3801    4.9953   -1.8062 C.ar      1 <0>        -0.0603
      2 C2          7.4266    5.3362   -0.4673 C.ar      1 <0>        -0.1350
      3 C3          6.5529    4.7463    0.4269 C.ar      1 <0>        -0.0082
      4 C4          5.6324    3.8159   -0.0178 C.ar      1 <0>        -0.6746
      5 C5          5.5893    3.4711   -1.3558 C.ar      1 <0>        -0.0247
      6 C6          6.4601    4.0642   -2.2507 C.ar      1 <0>        -0.1387
      7 S1          4.5187    3.0641    1.1220 S.o2      1 <0>         2.6883
      8 O1          5.1294    3.1486    2.4022 O.2       1 <0>        -0.9554
      9 O2          4.1231    1.8263    0.5468 O.2       1 <0>        -0.9527
     10 N1          3.1631    4.0135    1.1806 N.pl3     1 <0>        -1.0935
     11 C7          2.3179    4.1576   -0.0072 C.3       1 <0>         0.1888
     12 H1          2.9031    3.9880   -0.9111 H         1 <0>         0.1050
     13 C8          1.1595    3.1921    0.0547 C.ar      1 <0>        -0.1098
     14 C9          1.0460    1.8361    0.1045 C.ar      1 <0>        -0.0743
     15 C10        -0.2134    1.2349    0.1569 C.ar      1 <0>        -0.1152
     16 C11        -1.3695    1.9609    0.1554 C.ar      1 <0>        -0.0960
     17 C12        -1.2888    3.3622    0.1103 C.ar      1 <0>        -0.0526
     18 C13        -0.0099    3.9449    0.0575 C.ar      1 <0>        -0.0593
     19 C14         0.1873    5.3212    0.0046 C.ar      1 <0>        -0.1079
     20 C15        -0.9119    6.1241    0.0041 C.ar      1 <0>        -0.0724
     21 C16        -2.1923    5.5678    0.0563 C.ar      1 <0>        -0.1210
     22 C17        -2.4011    4.2202    0.1091 C.ar      1 <0>        -0.0895
     23 C18         1.6766    5.5621   -0.0405 C.3       1 <0>         0.2024
     24 H2          1.9478    6.0796   -0.9608 H         1 <0>         0.1094
     25 N2          2.1004    6.3416    1.1253 N.pl3     1 <0>        -0.7313
     26 C19         3.2549    7.1295    1.0580 C.ar      1 <0>         0.2078
     27 C20         4.0022    7.1684   -0.1117 C.ar      1 <0>        -0.1765
     28 C21         5.1386    7.9505   -0.1789 C.ar      1 <0>        -0.0903
     29 C22         5.5392    8.6886    0.9249 C.ar      1 <0>         0.0470
     30 C23         4.7965    8.6459    2.0955 C.ar      1 <0>        -0.0950
     31 C24         3.6570    7.8684    2.1628 C.ar      1 <0>        -0.1755
     32 O3          6.6613    9.4545    0.8595 O.3       1 <0>        -0.4985
     33 H3          8.0622    5.4567   -2.5049 H         1 <0>         0.1306
     34 H4          8.1453    6.0636   -0.1200 H         1 <0>         0.1308
     35 H5          6.5893    5.0127    1.4729 H         1 <0>         0.1358
     36 H6          4.8731    2.7409   -1.7025 H         1 <0>         0.1383
     37 H7          6.4235    3.7981   -3.2968 H         1 <0>         0.1326
     38 H8          2.9288    4.4741    2.0014 H         1 <0>         0.4205
     39 H9          1.9346    1.2223    0.1038 H         1 <0>         0.1438
     40 H10        -0.2750    0.1574    0.1956 H         1 <0>         0.1270
     41 H11        -2.3290    1.4665    0.1927 H         1 <0>         0.1313
     42 H12        -0.7935    7.1968   -0.0365 H         1 <0>         0.1253
     43 H13        -3.0473    6.2277    0.0553 H         1 <0>         0.1259
     44 H14        -3.4036    3.8205    0.1497 H         1 <0>         0.1314
     45 H15         1.5808    6.3115    1.9438 H         1 <0>         0.4048
     46 H16         3.6927    6.5905   -0.9700 H         1 <0>         0.1219
     47 H17         5.7175    7.9844   -1.0900 H         1 <0>         0.1241
     48 H18         5.1096    9.2204    2.9548 H         1 <0>         0.1276
     49 H19         3.0786    7.8355    3.0742 H         1 <0>         0.1256
     50 H20         7.4689    8.9921    1.1222 H         1 <0>         0.3821
@<TRIPOS>BOND
     1    1    6 ar
     2    1    2 ar
     3    1   33 1
     4    2    3 ar
     5    2   34 1
     6    3    4 ar
     7    3   35 1
     8    4    5 ar
     9    4    7 1
    10    5    6 ar
    11    5   36 1
    12    6   37 1
    13    7    8 2
    14    7    9 2
    15    7   10 1
    16   10   11 1
    17   10   38 1
    18   11   12 1
    19   11   23 1
    20   11   13 1
    21   13   18 ar
    22   13   14 ar
    23   14   15 ar
    24   14   39 1
    25   15   16 ar
    26   15   40 1
    27   16   17 ar
    28   16   41 1
    29   17   22 ar
    30   17   18 ar
    31   18   19 ar
    32   19   20 ar
    33   19   23 1
    34   20   21 ar
    35   20   42 1
    36   21   22 ar
    37   21   43 1
    38   22   44 1
    39   23   24 1
    40   23   25 1
    41   25   26 1
    42   25   45 1
    43   26   31 ar
    44   26   27 ar
    45   27   28 ar
    46   27   46 1
    47   28   29 ar
    48   28   47 1
    49   29   30 ar
    50   29   32 1
    51   30   31 ar
    52   30   48 1
    53   31   49 1
    54   32   50 1
@<TRIPOS>MOLECULE
ZINC16881138
   51    53     0     0     0
SMALL
USER_CHARGES
2-amino-5-hexyl-6-hydroxy-3-(1-naphthylmethyl)pyrimidin-4-one
@<TRIPOS>ATOM
      1 C1         -7.1170    1.6981   -3.4058 C.3       1 <0>        -0.1537
      2 C2         -6.3868    1.6387   -2.0626 C.3       1 <0>        -0.1256
      3 C3         -5.0600    0.8967   -2.2358 C.3       1 <0>        -0.1199
      4 C4         -4.3298    0.8373   -0.8927 C.3       1 <0>        -0.1189
      5 C5         -3.0030    0.0952   -1.0659 C.3       1 <0>        -0.1094
      6 C6         -2.2728    0.0358    0.2773 C.3       1 <0>        -0.0287
      7 C7         -0.9660   -0.6951    0.1067 C.2       1 <0>        -0.3462
      8 C8          0.2079    0.0026   -0.1213 C.2       1 <0>         0.4191
      9 N1          1.3566   -0.6629   -0.2752 N.2       1 <0>        -0.6390
     10 C9          1.3985   -1.9770   -0.2034 C.2       1 <0>         0.6693
     11 N2          0.2739   -2.7099    0.0186 N.am      1 <0>        -0.5461
     12 C10        -0.9158   -2.0926    0.1762 C.2       1 <0>         0.5558
     13 O1         -1.9306   -2.7413    0.3754 O.2       1 <0>        -0.5258
     14 C11         0.3544   -4.1711    0.0863 C.3       1 <0>         0.1289
     15 C12         0.2807   -4.7433   -1.3059 C.ar      1 <0>        -0.1017
     16 C13         0.1699   -3.9155   -2.3809 C.ar      1 <0>        -0.0982
     17 C14         0.1005   -4.4261   -3.6754 C.ar      1 <0>        -0.1124
     18 C15         0.1418   -5.7676   -3.9029 C.ar      1 <0>        -0.0967
     19 C16         0.2561   -6.6534   -2.8183 C.ar      1 <0>        -0.0494
     20 C17         0.3318   -6.1337   -1.5016 C.ar      1 <0>        -0.0370
     21 C18         0.4410   -7.0200   -0.4164 C.ar      1 <0>        -0.1153
     22 C19         0.4823   -8.3611   -0.6439 C.ar      1 <0>        -0.1063
     23 C20         0.4123   -8.8719   -1.9388 C.ar      1 <0>        -0.1155
     24 C21         0.3014   -8.0445   -3.0135 C.ar      1 <0>        -0.1013
     25 N3          2.5974   -2.6194   -0.3610 N.pl3     1 <0>        -0.8145
     26 O2          0.1913    1.3539   -0.1937 O.3       1 <0>        -0.4397
     27 H1         -6.4985    2.2246   -4.1327 H         1 <0>         0.0526
     28 H2         -7.3106    0.6854   -3.7592 H         1 <0>         0.0527
     29 H3         -8.0622    2.2268   -3.2824 H         1 <0>         0.0526
     30 H4         -7.0053    1.1122   -1.3358 H         1 <0>         0.0603
     31 H5         -6.1932    2.6515   -1.7092 H         1 <0>         0.0602
     32 H6         -4.4415    1.4232   -2.9627 H         1 <0>         0.0591
     33 H7         -5.2536   -0.1161   -2.5893 H         1 <0>         0.0594
     34 H8         -4.9483    0.3108   -0.1658 H         1 <0>         0.0608
     35 H9         -4.1362    1.8500   -0.5392 H         1 <0>         0.0604
     36 H10        -2.3845    0.6217   -1.7928 H         1 <0>         0.0555
     37 H11        -3.1966   -0.9176   -1.4193 H         1 <0>         0.0585
     38 H12        -2.8913   -0.4907    1.0041 H         1 <0>         0.0682
     39 H13        -2.0792    1.0486    0.6307 H         1 <0>         0.0700
     40 H14         1.2974   -4.4620    0.5492 H         1 <0>         0.1011
     41 H15        -0.4753   -4.5536    0.6807 H         1 <0>         0.1255
     42 H16         0.1350   -2.8469   -2.2280 H         1 <0>         0.1132
     43 H17         0.0129   -3.7474   -4.5109 H         1 <0>         0.1256
     44 H18         0.0866   -6.1490   -4.9118 H         1 <0>         0.1306
     45 H19         0.4956   -6.6387    0.5926 H         1 <0>         0.1269
     46 H20         0.5704   -9.0399    0.1916 H         1 <0>         0.1260
     47 H21         0.4468   -9.9405   -2.0916 H         1 <0>         0.1257
     48 H22         0.2481   -8.4546   -4.0112 H         1 <0>         0.1294
     49 H23         2.6253   -3.5873   -0.4174 H         1 <0>         0.4170
     50 H24         3.4189   -2.1065   -0.4163 H         1 <0>         0.4292
     51 H25         1.0586    1.7498   -0.3555 H         1 <0>         0.4077
@<TRIPOS>BOND
     1    1    2 1
     2    1   27 1
     3    1   28 1
     4    1   29 1
     5    2    3 1
     6    2   30 1
     7    2   31 1
     8    3    4 1
     9    3   32 1
    10    3   33 1
    11    4    5 1
    12    4   34 1
    13    4   35 1
    14    5    6 1
    15    5   36 1
    16    5   37 1
    17    6    7 1
    18    6   38 1
    19    6   39 1
    20    7   12 1
    21    7    8 2
    22    8    9 1
    23    8   26 1
    24    9   10 2
    25   10   11 1
    26   10   25 1
    27   11   12 am
    28   11   14 1
    29   12   13 2
    30   14   15 1
    31   14   40 1
    32   14   41 1
    33   15   20 ar
    34   15   16 ar
    35   16   17 ar
    36   16   42 1
    37   17   18 ar
    38   17   43 1
    39   18   19 ar
    40   18   44 1
    41   19   24 ar
    42   19   20 ar
    43   20   21 ar
    44   21   22 ar
    45   21   45 1
    46   22   23 ar
    47   22   46 1
    48   23   24 ar
    49   23   47 1
    50   24   48 1
    51   25   49 1
    52   25   50 1
    53   26   51 1
@<TRIPOS>MOLECULE
ZINC40704747
   41    43     0     0     0
SMALL
USER_CHARGES

@<TRIPOS>ATOM
      1 C1          1.3419    1.2169   -0.1514 C.3       1 <0>        -0.1139
      2 C2          0.6916   -0.1406   -0.0771 C.ar      1 <0>        -0.0686
      3 C3          0.1058   -0.6885   -1.2039 C.ar      1 <0>        -0.1403
      4 C4         -0.4924   -1.9334   -1.1400 C.ar      1 <0>        -0.0938
      5 C5         -0.5063   -2.6344    0.0500 C.ar      1 <0>        -0.1319
      6 C6          0.0816   -2.0874    1.1833 C.ar      1 <0>         0.1670
      7 C7          0.6863   -0.8384    1.1144 C.ar      1 <0>        -0.1253
      8 N1          0.0689   -2.7937    2.3891 N.pl3     1 <0>        -0.6459
      9 C8          0.1713   -2.1110    3.5957 C.ar      1 <0>         0.3888
     10 C9          0.2875   -2.8110    4.7997 C.ar      1 <0>         0.0642
     11 C10         0.3870   -2.0773    5.9807 C.ar      1 <0>         0.3080
     12 N2          0.3677   -0.7491    5.9182 N.ar      1 <0>        -0.5521
     13 C11         0.2567   -0.1265    4.7624 C.ar      1 <0>         0.3160
     14 N3          0.1657   -0.7810    3.6221 N.ar      1 <0>        -0.5361
     15 O1          0.5013   -2.7087    7.1761 O.3       1 <0>        -0.2448
     16 C12         0.4891   -1.9488    8.3028 C.ar      1 <0>         0.1150
     17 C13        -0.6560   -1.2499    8.6570 C.ar      1 <0>        -0.1084
     18 C14        -0.6664   -0.4786    9.8029 C.ar      1 <0>        -0.0744
     19 C15         0.4639   -0.4026   10.5971 C.ar      1 <0>        -0.0910
     20 C16         1.6069   -1.0983   10.2455 C.ar      1 <0>        -0.0755
     21 C17         1.6198   -1.8754    9.1035 C.ar      1 <0>        -0.1107
     22 Br1         0.4467    0.6541   12.1652 Br        1 <0>        -0.0426
     23 N4          0.3032   -4.2140    4.8193 N.pl3     1 <0>        -0.8645
     24 C18        -1.1588   -3.9911    0.1188 C.3       1 <0>        -0.1139
     25 H1          2.3911    1.1027   -0.4239 H         1 <0>         0.0690
     26 H2          0.8351    1.8219   -0.9032 H         1 <0>         0.0662
     27 H3          1.2699    1.7079    0.8191 H         1 <0>         0.0682
     28 H4          0.1152   -0.1424   -2.1356 H         1 <0>         0.1209
     29 H5         -0.9495   -2.3580   -2.0215 H         1 <0>         0.1239
     30 H6          1.1478   -0.4119    1.9927 H         1 <0>         0.1503
     31 H7         -0.0112   -3.7604    2.3841 H         1 <0>         0.4144
     32 H8          0.2440    0.9533    4.7486 H         1 <0>         0.2028
     33 H9         -1.5384   -1.3087    8.0372 H         1 <0>         0.1333
     34 H10        -1.5573    0.0658   10.0789 H         1 <0>         0.1395
     35 H11         2.4883   -1.0374   10.8667 H         1 <0>         0.1417
     36 H12         2.5108   -2.4219    8.8318 H         1 <0>         0.1395
     37 H13         0.2328   -4.7114    3.9895 H         1 <0>         0.3955
     38 H14         0.3844   -4.6865    5.6625 H         1 <0>         0.4103
     39 H15        -0.4230   -4.7605   -0.1148 H         1 <0>         0.0689
     40 H16        -1.5503   -4.1555    1.1227 H         1 <0>         0.0583
     41 H17        -1.9753   -4.0385   -0.6018 H         1 <0>         0.0720
@<TRIPOS>BOND
     1    1    2 1
     2    1   25 1
     3    1   26 1
     4    1   27 1
     5    2    7 ar
     6    2    3 ar
     7    3    4 ar
     8    3   28 1
     9    4    5 ar
    10    4   29 1
    11    5    6 ar
    12    5   24 1
    13    6    7 ar
    14    6    8 1
    15    7   30 1
    16    8    9 1
    17    8   31 1
    18    9   14 ar
    19    9   10 ar
    20   10   11 ar
    21   10   23 1
    22   11   12 ar
    23   11   15 1
    24   12   13 ar
    25   13   14 ar
    26   13   32 1
    27   15   16 1
    28   16   21 ar
    29   16   17 ar
    30   17   18 ar
    31   17   33 1
    32   18   19 ar
    33   18   34 1
    34   19   20 ar
    35   19   22 1
    36   20   21 ar
    37   20   35 1
    38   21   36 1
    39   23   37 1
    40   23   38 1
    41   24   39 1
    42   24   40 1
    43   24   41 1
@<TRIPOS>MOLECULE
ZINC04553446
   59    62     0     0     0
SMALL
USER_CHARGES

@<TRIPOS>ATOM
      1 C1         -0.0187    1.5258    0.0104 C.3       1 <0>        -0.1574
      2 C2          0.0021   -0.0041    0.0020 C.3       1 <0>        -0.1161
      3 C3          0.7421   -0.5109    1.2415 C.3       1 <0>        -0.0573
      4 C4          2.1775    0.0187    1.2307 C.3       1 <0>        -0.1499
      5 C5          0.0259   -0.0175    2.5003 C.3       1 <0>        -0.1470
      6 C6          0.7628   -2.0407    1.2331 C.3       1 <0>        -0.0679
      7 H1         -0.2591   -2.4198    1.2409 H         1 <0>         0.0755
      8 C7          1.5084   -2.5505    2.4698 C.3       1 <0>        -0.1191
      9 C8          1.3238   -4.0636    2.6020 C.3       1 <0>        -0.0535
     10 C9          1.7016   -4.7193    1.2812 C.2       1 <0>        -0.0312
     11 C10         1.7632   -4.0012    0.1366 C.2       1 <0>        -0.2165
     12 S1          2.2340   -5.1723   -1.1072 S.3       1 <0>         0.1977
     13 C11         2.3486   -6.5356   -0.1708 C.2       1 <0>         0.0987
     14 C12         2.0203   -6.1270    1.1272 C.2       1 <0>        -0.2535
     15 C13         2.0255   -7.1618    2.1932 C.2       1 <0>         0.4645
     16 N1          2.5698   -8.3154    1.9150 N.2       1 <0>        -0.6451
     17 C14         3.2281   -8.6359    0.6548 C.3       1 <0>         0.3989
     18 H2          3.0853   -9.6945    0.4380 H         1 <0>         0.1204
     19 N2          2.6850   -7.8389   -0.4602 N.pl3     1 <0>        -0.7046
     20 C15         4.7031   -8.3555    0.7851 C.ar      1 <0>        -0.0888
     21 C16         5.4322   -7.9685   -0.3240 C.ar      1 <0>        -0.1237
     22 C17         6.7854   -7.7101   -0.2096 C.ar      1 <0>        -0.1080
     23 C18         7.4139   -7.8383    1.0186 C.ar      1 <0>         0.0777
     24 C19         6.6799   -8.2274    2.1350 C.ar      1 <0>         0.1037
     25 C20         5.3228   -8.4802    2.0145 C.ar      1 <0>        -0.1650
     26 O1          7.2921   -8.3546    3.3427 O.3       1 <0>        -0.3061
     27 C21         6.4762   -8.7576    4.4444 C.3       1 <0>         0.0535
     28 C22         7.3336   -8.8456    5.7086 C.3       1 <0>        -0.1518
     29 O2          8.7451   -7.5850    1.1327 O.3       1 <0>        -0.4860
     30 O3          1.4855   -6.9172    3.4095 O.3       1 <0>        -0.4528
     31 C23         1.4867   -2.5385   -0.0266 C.3       1 <0>        -0.0286
     32 H3          1.0039    1.9031    0.0027 H         1 <0>         0.0568
     33 H4         -0.5459    1.8868   -0.8726 H         1 <0>         0.0512
     34 H5         -0.5289    1.8773    0.9072 H         1 <0>         0.0565
     35 H6         -1.0205   -0.3814    0.0098 H         1 <0>         0.0614
     36 H7          0.5123   -0.3556   -0.8948 H         1 <0>         0.0635
     37 H8          2.1627    1.1086    1.2367 H         1 <0>         0.0578
     38 H9          2.7046   -0.3424    2.1137 H         1 <0>         0.0571
     39 H10         2.6876   -0.3328    0.3339 H         1 <0>         0.0576
     40 H11        -0.9967   -0.3948    2.5081 H         1 <0>         0.0544
     41 H12         0.5531   -0.3786    3.3834 H         1 <0>         0.0583
     42 H13         0.0111    1.0724    2.5063 H         1 <0>         0.0586
     43 H14         2.5698   -2.3223    2.3722 H         1 <0>         0.0665
     44 H15         1.1138   -2.0585    3.3588 H         1 <0>         0.0740
     45 H16         1.9678   -4.4425    3.3956 H         1 <0>         0.0782
     46 H17         0.2826   -4.2858    2.8357 H         1 <0>         0.0787
     47 H18         2.5708   -8.2121   -1.3482 H         1 <0>         0.4165
     48 H19         4.9436   -7.8683   -1.2819 H         1 <0>         0.1249
     49 H20         7.3529   -7.4087   -1.0777 H         1 <0>         0.1368
     50 H21         4.7501   -8.7786    2.8801 H         1 <0>         0.1405
     51 H22         5.6815   -8.0268    4.5945 H         1 <0>         0.0603
     52 H23         6.0378   -9.7331    4.2342 H         1 <0>         0.0627
     53 H24         8.1283   -9.5764    5.5586 H         1 <0>         0.0674
     54 H25         7.7720   -7.8700    5.9189 H         1 <0>         0.0661
     55 H26         6.7112   -9.1530    6.5490 H         1 <0>         0.0796
     56 H27         8.9536   -6.6647    1.3445 H         1 <0>         0.3868
     57 H28         1.5455   -7.6619    4.0234 H         1 <0>         0.4051
     58 H29         0.8557   -2.3772   -0.9006 H         1 <0>         0.0782
     59 H30         2.4266   -1.9998   -0.1471 H         1 <0>         0.0835
@<TRIPOS>BOND
     1    1    2 1
     2    1   32 1
     3    1   33 1
     4    1   34 1
     5    2    3 1
     6    2   35 1
     7    2   36 1
     8    3    4 1
     9    3    5 1
    10    3    6 1
    11    4   37 1
    12    4   38 1
    13    4   39 1
    14    5   40 1
    15    5   41 1
    16    5   42 1
    17    6    7 1
    18    6   31 1
    19    6    8 1
    20    8    9 1
    21    8   43 1
    22    8   44 1
    23    9   10 1
    24    9   45 1
    25    9   46 1
    26   10   14 1
    27   10   11 2
    28   11   12 1
    29   11   31 1
    30   12   13 1
    31   13   19 1
    32   13   14 2
    33   14   15 1
    34   15   16 2
    35   15   30 1
    36   16   17 1
    37   17   18 1
    38   17   19 1
    39   17   20 1
    40   19   47 1
    41   20   25 ar
    42   20   21 ar
    43   21   22 ar
    44   21   48 1
    45   22   23 ar
    46   22   49 1
    47   23   24 ar
    48   23   29 1
    49   24   25 ar
    50   24   26 1
    51   25   50 1
    52   26   27 1
    53   27   28 1
    54   27   51 1
    55   27   52 1
    56   28   53 1
    57   28   54 1
    58   28   55 1
    59   29   56 1
    60   30   57 1
    61   31   58 1
    62   31   59 1
@<TRIPOS>MOLECULE
ZINC66108202
   47    48     0     0     0
SMALL
USER_CHARGES

@<TRIPOS>ATOM
      1 C1         -0.0048    1.4698    0.0477 C.3       1 <0>        -0.1652
      2 C2          0.0261   -0.0599    0.0399 C.3       1 <0>         0.1683
      3 C3          0.7747   -0.5612    1.2765 C.3       1 <0>        -0.1651
      4 C4         -1.4057   -0.5989    0.0572 C.3       1 <0>        -0.1566
      5 N1          0.7097   -0.5283   -1.1681 N.am      1 <0>        -0.7191
      6 C5          1.9901   -0.1757   -1.3975 C.2       1 <0>         0.5605
      7 O1          2.5777    0.5311   -0.6021 O.2       1 <0>        -0.5292
      8 C6          2.6801   -0.6485   -2.6168 C.ar      1 <0>        -0.0874
      9 C7          2.0056   -1.4557   -3.5348 C.ar      1 <0>        -0.1439
     10 C8          2.6516   -1.8957   -4.6719 C.ar      1 <0>        -0.0769
     11 C9          3.9669   -1.5406   -4.9067 C.ar      1 <0>        -0.1759
     12 C10         4.6473   -0.7375   -3.9992 C.ar      1 <0>         0.2106
     13 C11         4.0049   -0.2850   -2.8564 C.ar      1 <0>        -0.1286
     14 N2          5.9766   -0.3817   -4.2407 N.pl3     1 <0>        -0.7371
     15 C12         6.6533   -0.8552   -5.4507 C.3       1 <0>         0.1095
     16 C13         8.0674   -0.3346   -5.4717 C.2       1 <0>         0.5145
     17 O2          8.4703    0.3632   -4.5652 O.2       1 <0>        -0.5070
     18 N3          8.8844   -0.6445   -6.4979 N.am      1 <0>        -0.6668
     19 C14        10.1664   -0.0856   -6.5655 C.ar      1 <0>         0.1592
     20 C15        10.8827    0.1548   -5.4006 C.ar      1 <0>        -0.0969
     21 C16        12.1471    0.7062   -5.4698 C.ar      1 <0>        -0.0840
     22 C17        12.7007    1.0199   -6.6988 C.ar      1 <0>        -0.0376
     23 C18        11.9898    0.7817   -7.8617 C.ar      1 <0>        -0.0829
     24 C19        10.7265    0.2243   -7.7987 C.ar      1 <0>        -0.0526
     25 Cl1         9.8376   -0.0811   -9.2583 Cl        1 <0>        -0.0487
     26 Cl2        14.2898    1.7139   -6.7815 Cl        1 <0>        -0.0521
     27 H1          1.0153    1.8538    0.0354 H         1 <0>         0.0785
     28 H2         -0.5381    1.8270   -0.8332 H         1 <0>         0.0543
     29 H3         -0.5134    1.8183    0.9466 H         1 <0>         0.0641
     30 H4          0.2661   -0.2127    2.1753 H         1 <0>         0.0641
     31 H5          0.7967   -1.6510    1.2709 H         1 <0>         0.0543
     32 H6          1.7948   -0.1772    1.2642 H         1 <0>         0.0785
     33 H7         -1.9391   -0.2418   -0.8238 H         1 <0>         0.0626
     34 H8         -1.3837   -1.6887    0.0516 H         1 <0>         0.0625
     35 H9         -1.9144   -0.2504    0.9560 H         1 <0>         0.0753
     36 H10         0.2408   -1.0923   -1.8029 H         1 <0>         0.3993
     37 H11         0.9783   -1.7359   -3.3548 H         1 <0>         0.1222
     38 H12         2.1280   -2.5200   -5.3808 H         1 <0>         0.1291
     39 H13         4.4674   -1.8887   -5.7982 H         1 <0>         0.1250
     40 H14         4.5304    0.3428   -2.1521 H         1 <0>         0.1358
     41 H15         6.4514    0.1788   -3.6072 H         1 <0>         0.4142
     42 H16         6.6672   -1.9451   -5.4563 H         1 <0>         0.0983
     43 H17         6.1201   -0.4941   -6.3301 H         1 <0>         0.0987
     44 H18         8.5842   -1.2547   -7.1896 H         1 <0>         0.4180
     45 H19        10.4513   -0.0889   -4.4410 H         1 <0>         0.1590
     46 H20        12.7043    0.8932   -4.5637 H         1 <0>         0.1465
     47 H21        12.4240    1.0277   -8.8196 H         1 <0>         0.1504
@<TRIPOS>BOND
     1    1    2 1
     2    1   27 1
     3    1   28 1
     4    1   29 1
     5    2    3 1
     6    2    4 1
     7    2    5 1
     8    3   30 1
     9    3   31 1
    10    3   32 1
    11    4   33 1
    12    4   34 1
    13    4   35 1
    14    5    6 am
    15    5   36 1
    16    6    7 2
    17    6    8 1
    18    8   13 ar
    19    8    9 ar
    20    9   10 ar
    21    9   37 1
    22   10   11 ar
    23   10   38 1
    24   11   12 ar
    25   11   39 1
    26   12   13 ar
    27   12   14 1
    28   13   40 1
    29   14   15 1
    30   14   41 1
    31   15   16 1
    32   15   42 1
    33   15   43 1
    34   16   17 2
    35   16   18 am
    36   18   19 1
    37   18   44 1
    38   19   24 ar
    39   19   20 ar
    40   20   21 ar
    41   20   45 1
    42   21   22 ar
    43   21   46 1
    44   22   23 ar
    45   22   26 1
    46   23   24 ar
    47   23   47 1
    48   24   25 1
@<TRIPOS>MOLECULE
ZINC03108099
   41    45     0     0     0
SMALL
USER_CHARGES
3-[2-(1-naphthylamino)thiazol-4-yl]chromen-2-one
@<TRIPOS>ATOM
      1 C1         -8.8956   11.3468    1.4716 C.ar      1 <0>        -0.1078
      2 C2         -7.5755   10.9136    1.5782 C.ar      1 <0>        -0.1124
      3 C3         -7.1964    9.6973    1.0975 C.ar      1 <0>        -0.1076
      4 C4         -8.1465    8.8654    0.4851 C.ar      1 <0>        -0.0674
      5 C5         -9.4889    9.3047    0.3761 C.ar      1 <0>        -0.0230
      6 C6         -9.8434   10.5668    0.8836 C.ar      1 <0>        -0.1056
      7 C7        -10.4413    8.4732   -0.2373 C.ar      1 <0>        -0.1271
      8 C8        -10.0701    7.2555   -0.7210 C.ar      1 <0>        -0.0757
      9 C9         -8.7537    6.8151   -0.6250 C.ar      1 <0>        -0.1698
     10 C10        -7.7903    7.5985   -0.0251 C.ar      1 <0>         0.1771
     11 N1         -6.4755    7.1457    0.0713 N.pl3     1 <0>        -0.6026
     12 C11        -6.2063    5.7866    0.0370 C.2       1 <0>         0.3539
     13 N2         -5.0411    5.1675   -0.0138 N.2       1 <0>        -0.5511
     14 C12        -4.9683    3.8388   -0.0417 C.2       1 <0>         0.1230
     15 C13        -6.1228    3.1056   -0.0224 C.2       1 <0>        -0.2026
     16 S1         -7.3446    4.4089    0.0486 S.3       1 <0>         0.0344
     17 C14        -3.6521    3.1620   -0.0991 C.2       1 <0>        -0.1460
     18 C15        -2.4945    3.8931   -0.1124 C.2       1 <0>         0.0212
     19 C16        -1.2212    3.1736   -0.1744 C.ar      1 <0>        -0.1522
     20 C17        -0.0090    3.8744   -0.2074 C.ar      1 <0>        -0.0537
     21 C18         1.1707    3.1883   -0.2657 C.ar      1 <0>        -0.1393
     22 C19         1.1768    1.8011   -0.2924 C.ar      1 <0>        -0.0631
     23 C20        -0.0056    1.0920   -0.2607 C.ar      1 <0>        -0.1318
     24 C21        -1.2189    1.7683   -0.2072 C.ar      1 <0>         0.1399
     25 O1         -2.3796    1.0789   -0.1821 O.3       1 <0>        -0.2603
     26 C22        -3.5684    1.6986   -0.1305 C.2       1 <0>         0.5238
     27 O2         -4.5901    1.0376   -0.1099 O.2       1 <0>        -0.4503
     28 H1         -9.1706   12.3159    1.8610 H         1 <0>         0.1270
     29 H2         -6.8423   11.5519    2.0487 H         1 <0>         0.1265
     30 H3         -6.1698    9.3742    1.1873 H         1 <0>         0.1220
     31 H4        -10.8628   10.9155    0.8080 H         1 <0>         0.1326
     32 H5        -11.4671    8.7995   -0.3247 H         1 <0>         0.1327
     33 H6        -10.8086    6.6232   -1.1912 H         1 <0>         0.1323
     34 H7         -8.4843    5.8471   -1.0210 H         1 <0>         0.1340
     35 H8         -5.7489    7.7818    0.1625 H         1 <0>         0.4256
     36 H9         -6.2588    2.0344   -0.0430 H         1 <0>         0.2183
     37 H10        -2.5206    4.9725   -0.0907 H         1 <0>         0.1611
     38 H11        -0.0071    4.9542   -0.1865 H         1 <0>         0.1400
     39 H12         2.1051    3.7293   -0.2915 H         1 <0>         0.1369
     40 H13         2.1168    1.2713   -0.3389 H         1 <0>         0.1418
     41 H14         0.0109    0.0123   -0.2819 H         1 <0>         0.1456
@<TRIPOS>BOND
     1    1    6 ar
     2    1    2 ar
     3    1   28 1
     4    2    3 ar
     5    2   29 1
     6    3    4 ar
     7    3   30 1
     8    4   10 ar
     9    4    5 ar
    10    5    6 ar
    11    5    7 ar
    12    6   31 1
    13    7    8 ar
    14    7   32 1
    15    8    9 ar
    16    8   33 1
    17    9   10 ar
    18    9   34 1
    19   10   11 1
    20   11   12 1
    21   11   35 1
    22   12   16 1
    23   12   13 2
    24   13   14 1
    25   14   15 2
    26   14   17 1
    27   15   16 1
    28   15   36 1
    29   17   26 1
    30   17   18 2
    31   18   19 1
    32   18   37 1
    33   19   24 ar
    34   19   20 ar
    35   20   21 ar
    36   20   38 1
    37   21   22 ar
    38   21   39 1
    39   22   23 ar
    40   22   40 1
    41   23   24 ar
    42   23   41 1
    43   24   25 1
    44   25   26 1
    45   26   27 2
@<TRIPOS>MOLECULE
ZINC01826655
   53    57     0     0     0
SMALL
USER_CHARGES
(4-isopropoxyphenyl)-phenyl-BLAH
@<TRIPOS>ATOM
      1 C1          0.8008    5.5114    1.0182 C.3       1 <0>        -0.1501
      2 C2          0.6026    4.1559    0.3368 C.3       1 <0>         0.0764
      3 C3          0.1051    4.3721   -1.0938 C.3       1 <0>        -0.1827
      4 O1          1.8454    3.4512    0.3076 O.3       1 <0>        -0.3083
      5 C4          1.7846    2.0965    0.2256 C.ar      1 <0>         0.1422
      6 C5          0.5581    1.4670    0.0598 C.ar      1 <0>        -0.2097
      7 C6          0.4927    0.0924   -0.0243 C.ar      1 <0>        -0.0613
      8 C7          1.6606   -0.6660    0.0574 C.ar      1 <0>        -0.0786
      9 C8          2.8910   -0.0304    0.2240 C.ar      1 <0>        -0.0527
     10 C9          2.9491    1.3446    0.3073 C.ar      1 <0>        -0.1503
     11 C10         1.5943   -2.1425   -0.0320 C.2       1 <0>         0.1979
     12 C11         2.6572   -2.9788    0.0343 C.2       1 <0>        -0.2318
     13 C12         2.0559   -4.3525   -0.0892 C.3       1 <0>         0.1190
     14 H1          1.8264   -4.7670    0.8924 H         1 <0>         0.0793
     15 C13         2.7994   -5.3422   -0.9240 C.ar      1 <0>        -0.1312
     16 C14         4.1748   -5.4168   -0.9074 C.ar      1 <0>        -0.0703
     17 C15         4.8286   -6.3543   -1.6862 C.ar      1 <0>        -0.1501
     18 C16         4.0980   -7.2182   -2.4814 C.ar      1 <0>        -0.0850
     19 C17         2.6963   -7.1322   -2.5258 C.ar      1 <0>        -0.1532
     20 C18         2.0382   -6.1941   -1.7389 C.ar      1 <0>         0.1361
     21 O2          0.6798   -6.1380   -1.7779 O.3       1 <0>        -0.2934
     22 C19        -0.0114   -5.2125   -0.9198 C.3       1 <0>         0.2943
     23 H2         -0.9855   -4.9684   -1.3435 H         1 <0>         0.1377
     24 N1          0.8056   -4.0220   -0.8419 N.3       1 <0>        -0.3050
     25 N2          0.4093   -2.8995   -0.1938 N.pl3     1 <0>        -0.6056
     26 C20        -0.1826   -5.8100    0.4530 C.ar      1 <0>        -0.1551
     27 C21         0.0471   -7.1583    0.6535 C.ar      1 <0>        -0.0901
     28 C22        -0.1057   -7.7055    1.9137 C.ar      1 <0>        -0.1175
     29 C23        -0.4976   -6.9064    2.9714 C.ar      1 <0>        -0.1096
     30 C24        -0.7319   -5.5590    2.7699 C.ar      1 <0>        -0.1179
     31 C25        -0.5748   -5.0109    1.5106 C.ar      1 <0>        -0.1066
     32 H3          1.5355    6.0936    0.4621 H         1 <0>         0.0684
     33 H4         -0.1472    6.0489    1.0405 H         1 <0>         0.0783
     34 H5          1.1552    5.3574    2.0374 H         1 <0>         0.0658
     35 H6         -0.1322    3.5737    0.8929 H         1 <0>         0.0739
     36 H7         -0.8429    4.9096   -1.0715 H         1 <0>         0.0735
     37 H8          0.8399    4.9543   -1.6499 H         1 <0>         0.0692
     38 H9         -0.0360    3.4064   -1.5792 H         1 <0>         0.0632
     39 H10        -0.3452    2.0551   -0.0078 H         1 <0>         0.1325
     40 H11        -0.4616   -0.3966   -0.1529 H         1 <0>         0.1221
     41 H12         3.7971   -0.6146    0.2880 H         1 <0>         0.1361
     42 H13         3.9014    1.8374    0.4359 H         1 <0>         0.1362
     43 H14         3.6991   -2.7190    0.1498 H         1 <0>         0.1546
     44 H15         4.7437   -4.7417   -0.2853 H         1 <0>         0.1267
     45 H16         5.9070   -6.4114   -1.6735 H         1 <0>         0.1265
     46 H17         4.6078   -7.9534   -3.0864 H         1 <0>         0.1289
     47 H18         2.1263   -7.8079   -3.1462 H         1 <0>         0.1313
     48 H19        -0.4868   -2.6649    0.0939 H         1 <0>         0.4208
     49 H20         0.3492   -7.7835   -0.1737 H         1 <0>         0.1291
     50 H21         0.0777   -8.7581    2.0712 H         1 <0>         0.1263
     51 H22        -0.6202   -7.3346    3.9553 H         1 <0>         0.1253
     52 H23        -1.0380   -4.9346    3.5962 H         1 <0>         0.1252
     53 H24        -0.7583   -3.9583    1.3531 H         1 <0>         0.1189
@<TRIPOS>BOND
     1    1    2 1
     2    1   32 1
     3    1   33 1
     4    1   34 1
     5    2    3 1
     6    2    4 1
     7    2   35 1
     8    3   36 1
     9    3   37 1
    10    3   38 1
    11    4    5 1
    12    5   10 ar
    13    5    6 ar
    14    6    7 ar
    15    6   39 1
    16    7    8 ar
    17    7   40 1
    18    8    9 ar
    19    8   11 1
    20    9   10 ar
    21    9   41 1
    22   10   42 1
    23   11   25 1
    24   11   12 2
    25   12   13 1
    26   12   43 1
    27   13   14 1
    28   13   24 1
    29   13   15 1
    30   15   20 ar
    31   15   16 ar
    32   16   17 ar
    33   16   44 1
    34   17   18 ar
    35   17   45 1
    36   18   19 ar
    37   18   46 1
    38   19   20 ar
    39   19   47 1
    40   20   21 1
    41   21   22 1
    42   22   23 1
    43   22   24 1
    44   22   26 1
    45   24   25 1
    46   25   48 1
    47   26   31 ar
    48   26   27 ar
    49   27   28 ar
    50   27   49 1
    51   28   29 ar
    52   28   50 1
    53   29   30 ar
    54   29   51 1
    55   30   31 ar
    56   30   52 1
    57   31   53 1
@<TRIPOS>MOLECULE
ZINC06812585
   51    54     0     0     0
SMALL
USER_CHARGES

@<TRIPOS>ATOM
      1 C1         -2.5698   -1.6760   -1.6765 C.3       1 <0>        -0.1139
      2 C2         -1.3545   -1.5219   -0.7987 C.ar      1 <0>        -0.0785
      3 C3         -0.3290   -0.6765   -1.1810 C.ar      1 <0>        -0.1116
      4 C4          0.7876   -0.5324   -0.3785 C.ar      1 <0>        -0.1065
      5 C5          0.8817   -1.2327    0.8085 C.ar      1 <0>        -0.0992
      6 C6         -0.1463   -2.0818    1.1953 C.ar      1 <0>         0.1174
      7 C7         -1.2687   -2.2207    0.3893 C.ar      1 <0>        -0.0935
      8 N1         -0.0536   -2.7937    2.3983 N.am      1 <0>        -0.5097
      9 C8          0.0986   -2.1055    3.5415 C.2       1 <0>         0.5671
     10 O1          0.1516   -0.8907    3.5057 O.2       1 <0>        -0.4888
     11 C9          0.2018   -2.7947    4.8339 C.ar      1 <0>        -0.1651
     12 C10         0.3596   -2.0860    6.0254 C.ar      1 <0>        -0.0314
     13 C11         0.4521   -2.7697    7.2185 C.ar      1 <0>        -0.1474
     14 C12         0.3906   -4.1554    7.2480 C.ar      1 <0>        -0.0656
     15 C13         0.2348   -4.8753    6.0812 C.ar      1 <0>        -0.1461
     16 C14         0.1391   -4.2034    4.8680 C.ar      1 <0>         0.0514
     17 C15        -0.0289   -4.9257    3.5899 C.2       1 <0>        -0.3130
     18 C16        -0.0972   -6.3013    3.5561 C.2       1 <0>         0.2659
     19 N2         -0.0880   -6.9534    2.3631 N.pl3     1 <0>        -0.6116
     20 C17        -0.2755   -8.3374    2.3219 C.ar      1 <0>         0.1321
     21 C18        -0.4773   -9.0481    3.4987 C.ar      1 <0>        -0.1556
     22 C19        -0.6627  -10.4156    3.4543 C.ar      1 <0>        -0.0898
     23 C20        -0.6474  -11.0782    2.2402 C.ar      1 <0>        -0.1001
     24 C21        -0.4464  -10.3741    1.0673 C.ar      1 <0>        -0.0872
     25 C22        -0.2664   -9.0052    1.1039 C.ar      1 <0>        -0.1061
     26 C23        -0.0541   -8.2377   -0.1756 C.3       1 <0>        -0.1223
     27 C24        -0.8496  -12.5709    2.1958 C.3       1 <0>        -0.1150
     28 C25        -0.1264   -4.1340    2.3583 C.2       1 <0>         0.5808
     29 O2         -0.2703   -4.6981    1.2891 O.2       1 <0>        -0.5245
     30 H1         -3.3167   -0.9332   -1.3965 H         1 <0>         0.0726
     31 H2         -2.2859   -1.5309   -2.7188 H         1 <0>         0.0699
     32 H3         -2.9857   -2.6754   -1.5490 H         1 <0>         0.0669
     33 H4         -0.4003   -0.1279   -2.1086 H         1 <0>         0.1278
     34 H5          1.5871    0.1280   -0.6800 H         1 <0>         0.1308
     35 H6          1.7543   -1.1200    1.4349 H         1 <0>         0.1240
     36 H7         -2.0719   -2.8773    0.6895 H         1 <0>         0.1231
     37 H8          0.4093   -1.0072    6.0128 H         1 <0>         0.1394
     38 H9          0.5743   -2.2207    8.1405 H         1 <0>         0.1329
     39 H10         0.4656   -4.6748    8.1919 H         1 <0>         0.1321
     40 H11         0.1879   -5.9539    6.1102 H         1 <0>         0.1293
     41 H12        -0.1580   -6.8617    4.4774 H         1 <0>         0.1707
     42 H13         0.0488   -6.4578    1.5406 H         1 <0>         0.4311
     43 H14        -0.4887   -8.5315    4.4470 H         1 <0>         0.1285
     44 H15        -0.8196  -10.9686    4.3686 H         1 <0>         0.1306
     45 H16        -0.4343  -10.8946    0.1211 H         1 <0>         0.1306
     46 H17         1.0117   -8.1927   -0.3997 H         1 <0>         0.0748
     47 H18        -0.5759   -8.7390   -0.9908 H         1 <0>         0.0764
     48 H19        -0.4444   -7.2264   -0.0617 H         1 <0>         0.0690
     49 H20        -1.9126  -12.7907    2.0958 H         1 <0>         0.0720
     50 H21        -0.3112  -12.9853    1.3435 H         1 <0>         0.0676
     51 H22        -0.4715  -13.0163    3.1159 H         1 <0>         0.0680
@<TRIPOS>BOND
     1    1    2 1
     2    1   30 1
     3    1   31 1
     4    1   32 1
     5    2    7 ar
     6    2    3 ar
     7    3    4 ar
     8    3   33 1
     9    4    5 ar
    10    4   34 1
    11    5    6 ar
    12    5   35 1
    13    6    7 ar
    14    6    8 1
    15    7   36 1
    16    8   28 am
    17    8    9 am
    18    9   10 2
    19    9   11 1
    20   11   16 ar
    21   11   12 ar
    22   12   13 ar
    23   12   37 1
    24   13   14 ar
    25   13   38 1
    26   14   15 ar
    27   14   39 1
    28   15   16 ar
    29   15   40 1
    30   16   17 1
    31   17   18 2
    32   17   28 1
    33   18   19 1
    34   18   41 1
    35   19   20 1
    36   19   42 1
    37   20   25 ar
    38   20   21 ar
    39   21   22 ar
    40   21   43 1
    41   22   23 ar
    42   22   44 1
    43   23   24 ar
    44   23   27 1
    45   24   25 ar
    46   24   45 1
    47   25   26 1
    48   26   46 1
    49   26   47 1
    50   26   48 1
    51   27   49 1
    52   27   50 1
    53   27   51 1
    54   28   29 2
@<TRIPOS>MOLECULE
ZINC01043421
   42    45     0     0     0
SMALL
USER_CHARGES

@<TRIPOS>ATOM
      1 C1          0.3446    0.7744    2.4235 C.ar      1 <0>        -0.1128
      2 C2          1.5355    1.4967    2.4431 C.ar      1 <0>        -0.1104
      3 C3          2.6563    1.0160    1.8354 C.ar      1 <0>        -0.1195
      4 C4          2.6139   -0.2222    1.1805 C.ar      1 <0>        -0.0090
      5 C5          1.4044   -0.9582    1.1592 C.ar      1 <0>        -0.0618
      6 C6          0.2674   -0.4317    1.7967 C.ar      1 <0>        -0.1081
      7 C7          1.3608   -2.2006    0.5035 C.ar      1 <0>        -0.0655
      8 C8          2.4761   -2.6915   -0.1070 C.ar      1 <0>        -0.1328
      9 C9          3.6717   -1.9845   -0.0965 C.ar      1 <0>        -0.0651
     10 C10         3.7601   -0.7539    0.5379 C.ar      1 <0>        -0.1321
     11 C11         5.0318   -0.0082    0.5445 C.2       1 <0>         0.5687
     12 O1          5.0768    1.1132    1.0131 O.2       1 <0>        -0.5135
     13 N1          6.1447   -0.5692    0.0313 N.am      1 <0>        -0.6527
     14 C12         7.3699    0.1034    0.1143 C.ar      1 <0>         0.0912
     15 C13         7.4085    1.4884    0.2246 C.ar      1 <0>        -0.0609
     16 C14         8.6461    2.1102    0.3045 C.ar      1 <0>        -0.1782
     17 C15         9.7931    1.3418    0.2723 C.ar      1 <0>         0.1190
     18 N2          9.7278    0.0278    0.1666 N.ar      1 <0>        -0.5062
     19 C16         8.5707   -0.6069    0.0935 C.ar      1 <0>         0.2887
     20 O2          8.5506   -1.9602   -0.0085 O.3       1 <0>        -0.2523
     21 C17         9.7388   -2.6087   -0.1297 C.ar      1 <0>         0.1007
     22 C18        10.5616   -2.7636    0.9767 C.ar      1 <0>        -0.0968
     23 C19        11.7687   -3.4234    0.8515 C.ar      1 <0>        -0.0964
     24 C20        12.1576   -3.9294   -0.3762 C.ar      1 <0>        -0.0320
     25 C21        11.3387   -3.7756   -1.4809 C.ar      1 <0>        -0.0974
     26 C22        10.1280   -3.1218   -1.3586 C.ar      1 <0>        -0.1053
     27 Cl1        13.6754   -4.7577   -0.5310 Cl        1 <0>        -0.0621
     28 H1         -0.5290    1.1748    2.9164 H         1 <0>         0.1254
     29 H2          1.5708    2.4514    2.9469 H         1 <0>         0.1258
     30 H3          3.5729    1.5867    1.8580 H         1 <0>         0.1680
     31 H4         -0.6623   -0.9811    1.7893 H         1 <0>         0.1303
     32 H5          0.4418   -2.7676    0.4836 H         1 <0>         0.1344
     33 H6          2.4296   -3.6474   -0.6074 H         1 <0>         0.1338
     34 H7          4.5408   -2.3966   -0.5877 H         1 <0>         0.1279
     35 H8          6.0968   -1.4388   -0.3957 H         1 <0>         0.4169
     36 H9          6.4968    2.0668    0.2472 H         1 <0>         0.1737
     37 H10         8.7119    3.1847    0.3905 H         1 <0>         0.1454
     38 H11        10.7578    1.8232    0.3343 H         1 <0>         0.1645
     39 H12        10.2587   -2.3682    1.9350 H         1 <0>         0.1353
     40 H13        12.4095   -3.5442    1.7125 H         1 <0>         0.1405
     41 H14        11.6442   -4.1709   -2.4384 H         1 <0>         0.1419
     42 H15         9.4869   -3.0061   -2.2200 H         1 <0>         0.1388
@<TRIPOS>BOND
     1    1    6 ar
     2    1    2 ar
     3    1   28 1
     4    2    3 ar
     5    2   29 1
     6    3    4 ar
     7    3   30 1
     8    4   10 ar
     9    4    5 ar
    10    5    6 ar
    11    5    7 ar
    12    6   31 1
    13    7    8 ar
    14    7   32 1
    15    8    9 ar
    16    8   33 1
    17    9   10 ar
    18    9   34 1
    19   10   11 1
    20   11   12 2
    21   11   13 am
    22   13   14 1
    23   13   35 1
    24   14   19 ar
    25   14   15 ar
    26   15   16 ar
    27   15   36 1
    28   16   17 ar
    29   16   37 1
    30   17   18 ar
    31   17   38 1
    32   18   19 ar
    33   19   20 1
    34   20   21 1
    35   21   26 ar
    36   21   22 ar
    37   22   23 ar
    38   22   39 1
    39   23   24 ar
    40   23   40 1
    41   24   25 ar
    42   24   27 1
    43   25   26 ar
    44   25   41 1
    45   26   42 1
@<TRIPOS>MOLECULE
ZINC05827658
   40    43     0     0     0
SMALL
USER_CHARGES

@<TRIPOS>ATOM
      1 C1         -1.4723    0.8139    0.6512 C.1       1 <0>        -0.1590
      2 C2         -0.8747    1.7057    0.1760 C.1       1 <0>        -0.2210
      3 C3         -0.1254    2.8239   -0.4197 C.3       1 <0>         0.2262
      4 N1          1.3090    2.6226   -0.2000 N.pl3     1 <0>        -0.4770
      5 C4          2.0156    3.1509    0.8304 C.2       1 <0>         0.1517
      6 C5          3.3247    2.7661    0.7363 C.2       1 <0>        -0.1723
      7 C6          3.4253    1.9211   -0.4690 C.ar      1 <0>        -0.0733
      8 C7          2.1304    1.8640   -1.0090 C.ar      1 <0>         0.0889
      9 C8          1.9058    1.1246   -2.1653 C.ar      1 <0>        -0.1230
     10 C9          2.9493    0.4548   -2.7669 C.ar      1 <0>        -0.1121
     11 C10         4.2270    0.5092   -2.2299 C.ar      1 <0>        -0.1452
     12 C11         4.4709    1.2429   -1.0890 C.ar      1 <0>        -0.0774
     13 C12         4.4097    3.1219    1.6495 C.2       1 <0>         0.0432
     14 C13         4.1559    3.2863    2.9772 C.2       1 <0>        -0.2172
     15 C14         2.9228    3.0185    3.7448 C.2       1 <0>         0.5315
     16 O1          1.9148    2.5812    3.2109 O.2       1 <0>        -0.5380
     17 N2          2.9680    3.2755    5.0340 N.2       1 <0>        -0.7152
     18 C15         4.0533    3.7489    5.6251 C.2       1 <0>         0.4524
     19 S1          5.2244    3.8797    4.2828 S.3       1 <0>        -0.1384
     20 N3          4.2362    4.0592    6.9491 N.2       1 <0>        -0.5752
     21 C16         3.2665    3.7012    7.8920 C.ar      1 <0>         0.1575
     22 C17         2.4127    2.6350    7.6410 C.ar      1 <0>        -0.1305
     23 C18         1.4565    2.2830    8.5733 C.ar      1 <0>        -0.1351
     24 C19         1.3484    2.9926    9.7575 C.ar      1 <0>         0.0345
     25 C20         2.1984    4.0564   10.0097 C.ar      1 <0>        -0.1385
     26 C21         3.1601    4.4079    9.0829 C.ar      1 <0>        -0.1189
     27 F1          0.4121    2.6469   10.6679 F         1 <0>        -0.1574
     28 H1         -2.0068    0.0162    1.0761 H         1 <0>         0.2198
     29 H2         -0.3265    2.8667   -1.4901 H         1 <0>         0.1068
     30 H3         -0.4366    3.7589    0.0461 H         1 <0>         0.1137
     31 H4          1.6065    3.7798    1.6072 H         1 <0>         0.1818
     32 H5          0.9146    1.0751   -2.5913 H         1 <0>         0.1143
     33 H6          2.7704   -0.1182   -3.6647 H         1 <0>         0.1205
     34 H7          5.0355   -0.0208   -2.7114 H         1 <0>         0.1197
     35 H8          5.4664    1.2828   -0.6721 H         1 <0>         0.1214
     36 H9          5.4125    3.2542    1.2710 H         1 <0>         0.1275
     37 H10         2.4962    2.0818    6.7172 H         1 <0>         0.1447
     38 H11         0.7924    1.4540    8.3784 H         1 <0>         0.1197
     39 H12         2.1119    4.6089   10.9336 H         1 <0>         0.1236
     40 H13         3.8260    5.2345    9.2821 H         1 <0>         0.1252
@<TRIPOS>BOND
     1    1    2 3
     2    1   28 1
     3    2    3 1
     4    3    4 1
     5    3   29 1
     6    3   30 1
     7    4    8 1
     8    4    5 1
     9    5    6 2
    10    5   31 1
    11    6    7 1
    12    6   13 1
    13    7   12 ar
    14    7    8 ar
    15    8    9 ar
    16    9   10 ar
    17    9   32 1
    18   10   11 ar
    19   10   33 1
    20   11   12 ar
    21   11   34 1
    22   12   35 1
    23   13   14 2
    24   13   36 1
    25   14   19 1
    26   14   15 1
    27   15   16 2
    28   15   17 1
    29   17   18 2
    30   18   19 1
    31   18   20 1
    32   20   21 1
    33   21   26 ar
    34   21   22 ar
    35   22   23 ar
    36   22   37 1
    37   23   24 ar
    38   23   38 1
    39   24   25 ar
    40   24   27 1
    41   25   26 ar
    42   25   39 1
    43   26   40 1
@<TRIPOS>MOLECULE
ZINC01302691
   53    56     0     0     0
SMALL
USER_CHARGES
2-[[4-(4-chlorophenyl)-5-(p-tolyl)-1,2,4-triazol-3-yl]sulfanyl]-N-[(1-methylpyrrol-2-yl)methyleneamino]acetamide
@<TRIPOS>ATOM
      1 C1          7.6794   10.5195   -0.0127 C.3       1 <0>        -0.1205
      2 C2          6.7941    9.3000   -0.0114 C.ar      1 <0>        -0.0645
      3 C3          7.3244    8.0636   -0.3348 C.ar      1 <0>        -0.1197
      4 C4          6.5195    6.9432   -0.3356 C.ar      1 <0>        -0.0661
      5 C5          5.1672    7.0590   -0.0094 C.ar      1 <0>        -0.0333
      6 C6          4.6373    8.3102    0.3100 C.ar      1 <0>        -0.0991
      7 C7          5.4545    9.4216    0.3129 C.ar      1 <0>        -0.1176
      8 C8          4.2990    5.8628   -0.0080 C.2       1 <0>         0.2439
      9 N1          4.6948    4.6110   -0.0188 N.2       1 <0>        -0.2632
     10 N2          3.6763    3.8276   -0.0129 N.2       1 <0>        -0.2852
     11 C9          2.5652    4.5299    0.0019 C.2       1 <0>         0.1492
     12 N3          2.9213    5.8507    0.0001 N.pl3     1 <0>        -0.4159
     13 C10         2.0637    6.9600    0.0079 C.ar      1 <0>         0.1043
     14 C11         2.0352    7.8244   -1.0780 C.ar      1 <0>        -0.0824
     15 C12         1.1864    8.9140   -1.0697 C.ar      1 <0>        -0.0955
     16 C13         0.3723    9.1500    0.0241 C.ar      1 <0>        -0.0177
     17 C14         0.4024    8.2924    1.1097 C.ar      1 <0>        -0.0931
     18 C15         1.2460    7.1988    1.1041 C.ar      1 <0>        -0.0868
     19 Cl1        -0.6891   10.5237    0.0341 Cl        1 <0>        -0.0487
     20 S1          0.9237    3.8896    0.0141 S.3       1 <0>         0.1056
     21 C16         1.2785    2.1147    0.0012 C.3       1 <0>        -0.1495
     22 C17        -0.0162    1.3436    0.0094 C.2       1 <0>         0.5533
     23 O1         -1.0750    1.9358    0.0177 O.2       1 <0>        -0.4835
     24 N4          0.0021   -0.0041    0.0020 N.am      1 <0>        -0.5773
     25 N5         -1.2016   -0.7210    0.0097 N.2       1 <0>        -0.2235
     26 C18        -1.1839   -2.0214    0.0025 C.2       1 <0>         0.1460
     27 C19        -2.4442   -2.7721    0.0105 C.2       1 <0>         0.0186
     28 C20        -3.7118   -2.2335    0.0315 C.2       1 <0>        -0.1235
     29 C21        -4.6163   -3.3050    0.0284 C.2       1 <0>        -0.2061
     30 C22        -3.9001   -4.4514    0.0154 C.2       1 <0>         0.0164
     31 N6         -2.5741   -4.1402    0.0044 N.pl3     1 <0>        -0.4394
     32 C23        -1.4704   -5.1035   -0.0113 C.3       1 <0>         0.0676
     33 H1          7.6677   10.9759   -1.0025 H         1 <0>         0.0755
     34 H2          7.3120   11.2359    0.7221 H         1 <0>         0.0697
     35 H3          8.6987   10.2288    0.2414 H         1 <0>         0.0706
     36 H4          8.3708    7.9755   -0.5870 H         1 <0>         0.1324
     37 H5          6.9347    5.9788   -0.5882 H         1 <0>         0.1375
     38 H6          3.5908    8.4073    0.5586 H         1 <0>         0.1261
     39 H7          5.0468   10.3896    0.5641 H         1 <0>         0.1293
     40 H8          2.6736    7.6431   -1.9300 H         1 <0>         0.1422
     41 H9          1.1612    9.5847   -1.9159 H         1 <0>         0.1496
     42 H10        -0.2339    8.4786    1.9623 H         1 <0>         0.1506
     43 H11         1.2697    6.5302    1.9519 H         1 <0>         0.1448
     44 H12         1.8621    1.8544    0.8843 H         1 <0>         0.1332
     45 H13         1.8451    1.8640   -0.8956 H         1 <0>         0.1332
     46 H14         0.8486   -0.4776   -0.0086 H         1 <0>         0.3890
     47 H15        -0.2414   -2.5486   -0.0093 H         1 <0>         0.1167
     48 H16        -3.9622   -1.1830    0.0451 H         1 <0>         0.1469
     49 H17        -5.6935   -3.2281    0.0390 H         1 <0>         0.1429
     50 H18        -4.3117   -5.4499    0.0139 H         1 <0>         0.1689
     51 H19        -1.1869   -5.3479    1.0124 H         1 <0>         0.0769
     52 H20        -1.7867   -6.0101   -0.5270 H         1 <0>         0.0891
     53 H21        -0.6164   -4.6690   -0.5310 H         1 <0>         0.0823
@<TRIPOS>BOND
     1    1    2 1
     2    1   33 1
     3    1   34 1
     4    1   35 1
     5    2    7 ar
     6    2    3 ar
     7    3    4 ar
     8    3   36 1
     9    4    5 ar
    10    4   37 1
    11    5    6 ar
    12    5    8 1
    13    6    7 ar
    14    6   38 1
    15    7   39 1
    16    8   12 1
    17    8    9 2
    18    9   10 1
    19   10   11 2
    20   11   12 1
    21   11   20 1
    22   12   13 1
    23   13   18 ar
    24   13   14 ar
    25   14   15 ar
    26   14   40 1
    27   15   16 ar
    28   15   41 1
    29   16   17 ar
    30   16   19 1
    31   17   18 ar
    32   17   42 1
    33   18   43 1
    34   20   21 1
    35   21   22 1
    36   21   44 1
    37   21   45 1
    38   22   23 2
    39   22   24 am
    40   24   25 1
    41   24   46 1
    42   25   26 2
    43   26   27 1
    44   26   47 1
    45   27   31 1
    46   27   28 2
    47   28   29 1
    48   28   48 1
    49   29   30 2
    50   29   49 1
    51   30   31 1
    52   30   50 1
    53   31   32 1
    54   32   51 1
    55   32   52 1
    56   32   53 1
@<TRIPOS>MOLECULE
ZINC13959920
   56    59     0     0     0
SMALL
USER_CHARGES
3-[(4-nitrophenoxy)methyl]-N-[(1R)-1-(3-pyrrol-1-ylphenyl)ethyl]benzamide
@<TRIPOS>ATOM
      1 C1          6.4368    3.1422    1.3752 C.3       1 <0>        -0.1599
      2 C2          5.8763    2.9921   -0.0404 C.3       1 <0>         0.1849
      3 H1          5.4924    3.9530   -0.3830 H         1 <0>         0.1014
      4 C3          4.7607    1.9788   -0.0342 C.ar      1 <0>        -0.0629
      5 C4          5.0549    0.6275   -0.0443 C.ar      1 <0>        -0.1311
      6 C5          4.0342   -0.3050   -0.0386 C.ar      1 <0>        -0.0818
      7 C6          2.7169    0.1109   -0.0233 C.ar      1 <0>        -0.1396
      8 C7          2.4186    1.4665   -0.0132 C.ar      1 <0>         0.1510
      9 C8          3.4458    2.4006   -0.0238 C.ar      1 <0>        -0.1289
     10 N1          1.0827    1.8916    0.0019 N.pl3     1 <0>        -0.4002
     11 C9         -0.0126    1.0758    0.0080 C.2       1 <0>        -0.0166
     12 C10        -1.1155    1.8516    0.0168 C.2       1 <0>        -0.1867
     13 C11        -0.6881    3.1946    0.0258 C.2       1 <0>        -0.1867
     14 C12         0.6604    3.1903    0.0129 C.2       1 <0>        -0.0165
     15 N2          6.9399    2.5418   -0.9417 N.am      1 <0>        -0.7211
     16 C13         7.7711    3.4407   -1.5052 C.2       1 <0>         0.5625
     17 O1          7.6382    4.6250   -1.2657 O.2       1 <0>        -0.5293
     18 C14         8.8445    2.9863   -2.4147 C.ar      1 <0>        -0.1376
     19 C15         9.0034    1.6265   -2.6873 C.ar      1 <0>        -0.0719
     20 C16        10.0042    1.2096   -3.5401 C.ar      1 <0>        -0.1263
     21 C17        10.8559    2.1352   -4.1171 C.ar      1 <0>        -0.0647
     22 C18        10.7069    3.4838   -3.8474 C.ar      1 <0>        -0.1087
     23 C19         9.7069    3.9145   -2.9999 C.ar      1 <0>        -0.0316
     24 C20        11.6390    4.4846   -4.4802 C.3       1 <0>         0.0962
     25 O2         12.7716    4.6834   -3.6318 O.3       1 <0>        -0.2949
     26 C21        13.7157    5.5626   -4.0590 C.ar      1 <0>         0.1858
     27 C22        13.5581    6.2162   -5.2725 C.ar      1 <0>        -0.2116
     28 C23        14.5170    7.1131   -5.7023 C.ar      1 <0>        -0.0095
     29 C24        15.6381    7.3517   -4.9290 C.ar      1 <0>        -0.0860
     30 C25        15.8000    6.6977   -3.7216 C.ar      1 <0>        -0.0130
     31 C26        14.8415    5.8038   -3.2849 C.ar      1 <0>        -0.1501
     32 N3         16.6663    8.3092   -5.3942 N.pl3     1 <0>         0.0333
     33 O3         17.6541    8.5205   -4.7137 O.2       1 <0>        -0.1620
     34 O4         16.5247    8.8859   -6.4577 O.3       1 <0>        -0.1642
     35 H2          6.8207    2.1812    1.7178 H         1 <0>         0.0619
     36 H3          7.2437    3.8750    1.3707 H         1 <0>         0.0692
     37 H4          5.6454    3.4771    2.0458 H         1 <0>         0.0712
     38 H5          6.0840    0.3000   -0.0563 H         1 <0>         0.1261
     39 H6          4.2669   -1.3596   -0.0465 H         1 <0>         0.1357
     40 H7          1.9199   -0.6180   -0.0189 H         1 <0>         0.1327
     41 H8          3.2166    3.4560   -0.0201 H         1 <0>         0.1336
     42 H9          0.0021   -0.0041    0.0020 H         1 <0>         0.1654
     43 H10        -2.1390    1.5069    0.0191 H         1 <0>         0.1427
     44 H11        -1.3240    4.0674    0.0366 H         1 <0>         0.1427
     45 H12         1.2965    4.0631    0.0112 H         1 <0>         0.1652
     46 H13         7.0459    1.5968   -1.1328 H         1 <0>         0.3999
     47 H14         8.3422    0.9028   -2.2341 H         1 <0>         0.1285
     48 H15        10.1261    0.1582   -3.7545 H         1 <0>         0.1364
     49 H16        11.6407    1.8032   -4.7806 H         1 <0>         0.1325
     50 H17         9.5915    4.9677   -2.7901 H         1 <0>         0.1403
     51 H18        11.9715    4.1099   -5.4482 H         1 <0>         0.0832
     52 H19        11.1168    5.4316   -4.6170 H         1 <0>         0.0830
     53 H20        12.6846    6.0270   -5.8788 H         1 <0>         0.1525
     54 H21        14.3926    7.6254   -6.6448 H         1 <0>         0.1576
     55 H22        16.6767    6.8855   -3.1196 H         1 <0>         0.1615
     56 H23        14.9682    5.2935   -2.3416 H         1 <0>         0.1566
@<TRIPOS>BOND
     1    1    2 1
     2    1   35 1
     3    1   36 1
     4    1   37 1
     5    2    3 1
     6    2    4 1
     7    2   15 1
     8    4    9 ar
     9    4    5 ar
    10    5    6 ar
    11    5   38 1
    12    6    7 ar
    13    6   39 1
    14    7    8 ar
    15    7   40 1
    16    8    9 ar
    17    8   10 1
    18    9   41 1
    19   10   14 1
    20   10   11 1
    21   11   12 2
    22   11   42 1
    23   12   13 1
    24   12   43 1
    25   13   14 2
    26   13   44 1
    27   14   45 1
    28   15   16 am
    29   15   46 1
    30   16   17 2
    31   16   18 1
    32   18   23 ar
    33   18   19 ar
    34   19   20 ar
    35   19   47 1
    36   20   21 ar
    37   20   48 1
    38   21   22 ar
    39   21   49 1
    40   22   23 ar
    41   22   24 1
    42   23   50 1
    43   24   25 1
    44   24   51 1
    45   24   52 1
    46   25   26 1
    47   26   31 ar
    48   26   27 ar
    49   27   28 ar
    50   27   53 1
    51   28   29 ar
    52   28   54 1
    53   29   30 ar
    54   29   32 1
    55   30   31 ar
    56   30   55 1
    57   31   56 1
    58   32   33 2
    59   32   34 1
@<TRIPOS>MOLECULE
ZINC33122339
   51    54     0     0     0
SMALL
USER_CHARGES
4-chloro-N-[4-[(5-methyl-6-propyl-[1,2,4]triazolo[1,5-a]pyrimidin-7-yl)sulfanyl]phenyl]benzenesulfonamide
@<TRIPOS>ATOM
      1 C1          9.6509   -2.3754   -3.9486 C.3       1 <0>        -0.1537
      2 C2          8.8424   -1.1761   -4.4475 C.3       1 <0>        -0.1189
      3 C3          7.6688   -0.9223   -3.4993 C.3       1 <0>        -0.0821
      4 C4          6.8724    0.2590   -3.9907 C.2       1 <0>        -0.1063
      5 C5          7.1856    1.5474   -3.5673 C.2       1 <0>         0.2287
      6 N1          6.4888    2.5791   -3.9969 N.2       1 <0>        -0.4332
      7 C6          5.4672    2.4215   -4.8463 C.2       1 <0>         0.4359
      8 N2          4.6299    3.2847   -5.4111 N.2       1 <0>        -0.5180
      9 C7          3.7740    2.6349   -6.1902 C.2       1 <0>         0.2519
     10 N3          4.0310    1.3502   -6.1510 N.2       1 <0>        -0.3178
     11 N4          5.1253    1.1766   -5.2941 N.pl3     1 <0>        -0.3063
     12 C8          5.8193    0.0791   -4.8685 C.2       1 <0>         0.1191
     13 S1          5.3856   -1.5327   -5.4330 S.3       1 <0>         0.0918
     14 C9          4.1152   -1.9297   -4.2783 C.ar      1 <0>        -0.1023
     15 C10         3.4666   -3.1558   -4.3535 C.ar      1 <0>        -0.0818
     16 C11         2.4716   -3.4669   -3.4485 C.ar      1 <0>        -0.0833
     17 C12         2.1194   -2.5542   -2.4626 C.ar      1 <0>         0.1320
     18 C13         2.7639   -1.3259   -2.3909 C.ar      1 <0>        -0.0894
     19 C14         3.7625   -1.0167   -3.2925 C.ar      1 <0>        -0.1111
     20 N5          1.1112   -2.8698   -1.5450 N.pl3     1 <0>        -1.0763
     21 S2          1.4078   -3.9545   -0.3294 S.o2      1 <0>         2.6926
     22 O1          1.9719   -5.1062   -0.9415 O.2       1 <0>        -0.9444
     23 O2          0.2280   -4.0122    0.4604 O.2       1 <0>        -0.9478
     24 C15         2.6645   -3.2609    0.6925 C.ar      1 <0>        -0.6774
     25 C16         2.3262   -2.3755    1.6989 C.ar      1 <0>        -0.0048
     26 C17         3.3115   -1.8315    2.5011 C.ar      1 <0>        -0.1322
     27 C18         4.6366   -2.1728    2.2965 C.ar      1 <0>         0.0196
     28 C19         4.9746   -3.0582    1.2886 C.ar      1 <0>        -0.1309
     29 C20         3.9884   -3.6019    0.4873 C.ar      1 <0>        -0.0031
     30 Cl1         5.8747   -1.4894    3.3034 Cl        1 <0>        -0.0504
     31 C21         8.3302    1.7634   -2.6112 C.3       1 <0>        -0.1172
     32 H1         10.4947   -2.5579   -4.6303 H         1 <0>         0.0603
     33 H2          9.0053   -3.2655   -3.9177 H         1 <0>         0.0603
     34 H3         10.0339   -2.1650   -2.9391 H         1 <0>         0.0585
     35 H4          9.4880   -0.2860   -4.4784 H         1 <0>         0.0671
     36 H5          8.4594   -1.3865   -5.4570 H         1 <0>         0.0671
     37 H6          7.0233   -1.8124   -3.4684 H         1 <0>         0.0969
     38 H7          8.0518   -0.7119   -2.4898 H         1 <0>         0.0961
     39 H8          2.9863    3.0946   -6.7686 H         1 <0>         0.2361
     40 H9          3.7405   -3.8655   -5.1201 H         1 <0>         0.1409
     41 H10         1.9674   -4.4201   -3.5069 H         1 <0>         0.1468
     42 H11         2.4866   -0.6144   -1.6272 H         1 <0>         0.1324
     43 H12         4.2669   -0.0636   -3.2338 H         1 <0>         0.1127
     44 H13         0.1216   -2.3973   -1.6312 H         1 <0>         0.4554
     45 H14         1.2918   -2.1092    1.8585 H         1 <0>         0.1493
     46 H15         3.0475   -1.1367    3.2847 H         1 <0>         0.1458
     47 H16         6.0088   -3.3247    1.1282 H         1 <0>         0.1459
     48 H17         4.2521   -4.2937   -0.2991 H         1 <0>         0.1510
     49 H18         8.4269    2.8369   -2.3916 H         1 <0>         0.0952
     50 H19         9.2622    1.3968   -3.0662 H         1 <0>         0.1000
     51 H20         8.1370    1.2141   -1.6779 H         1 <0>         0.0989
@<TRIPOS>BOND
     1    1    2 1
     2    1   32 1
     3    1   33 1
     4    1   34 1
     5    2    3 1
     6    2   35 1
     7    2   36 1
     8    3    4 1
     9    3   37 1
    10    3   38 1
    11    4   12 2
    12    4    5 1
    13    5    6 2
    14    5   31 1
    15    6    7 1
    16    7   11 1
    17    7    8 2
    18    8    9 1
    19    9   10 2
    20    9   39 1
    21   10   11 1
    22   11   12 1
    23   12   13 1
    24   13   14 1
    25   14   19 ar
    26   14   15 ar
    27   15   16 ar
    28   15   40 1
    29   16   17 ar
    30   16   41 1
    31   17   18 ar
    32   17   20 1
    33   18   19 ar
    34   18   42 1
    35   19   43 1
    36   20   21 1
    37   20   44 1
    38   21   22 2
    39   21   23 2
    40   21   24 1
    41   24   29 ar
    42   24   25 ar
    43   25   26 ar
    44   25   45 1
    45   26   27 ar
    46   26   46 1
    47   27   28 ar
    48   27   30 1
    49   28   29 ar
    50   28   47 1
    51   29   48 1
    52   31   49 1
    53   31   50 1
    54   31   51 1
@<TRIPOS>MOLECULE
ZINC39583346
   50    52     0     0     0
SMALL
USER_CHARGES

@<TRIPOS>ATOM
      1 C1          0.0031    1.3825   -0.0236 C.ar      1 <0>        -0.1017
      2 C2          1.1918    2.0882   -0.0229 C.ar      1 <0>        -0.1162
      3 C3          2.3972    1.4116   -0.0285 C.ar      1 <0>        -0.0961
      4 C4          2.4140    0.0294   -0.0344 C.ar      1 <0>        -0.1271
      5 C5          1.2254   -0.6763   -0.0342 C.ar      1 <0>        -0.0882
      6 C6          0.0199    0.0002   -0.0300 C.ar      1 <0>        -0.1175
      7 C7          3.7282   -0.7082   -0.0414 C.3       1 <0>         0.1228
      8 H1          4.5166   -0.0424   -0.3925 H         1 <0>         0.1228
      9 C8          4.0497   -1.1751    1.3549 C.2       1 <0>         0.5305
     10 O1          4.0969   -2.3616    1.6018 O.2       1 <0>        -0.4786
     11 N1          4.2849   -0.2741    2.3293 N.am      1 <0>        -0.6646
     12 C9          4.4904   -0.7042    3.6452 C.ar      1 <0>         0.2309
     13 C10         5.1493   -1.9015    3.8911 C.ar      1 <0>        -0.1174
     14 C11         5.3505   -2.3233    5.1908 C.ar      1 <0>        -0.0167
     15 C12         4.8963   -1.5549    6.2472 C.ar      1 <0>        -0.0615
     16 C13         4.2399   -0.3622    6.0065 C.ar      1 <0>        -0.0038
     17 C14         4.0407    0.0687    4.7085 C.ar      1 <0>        -0.1296
     18 Br1         3.1497    1.7040    4.3800 Br        1 <0>        -0.0035
     19 N2          5.1131   -2.0108    7.6387 N.pl3     1 <0>         0.0354
     20 O2          5.6866   -3.0538    7.8507 O.2       1 <0>        -0.1496
     21 O3          4.7166   -1.3402    8.5632 O.3       1 <0>        -0.1526
     22 O4          3.6358   -1.8376   -0.9119 O.3       1 <0>        -0.3212
     23 C15         3.9699   -1.6450   -2.1977 C.2       1 <0>         0.4633
     24 O5          4.3289   -0.5536   -2.5716 O.2       1 <0>        -0.4917
     25 C16         3.8973   -2.7901   -3.1747 C.3       1 <0>        -0.1050
     26 C17         4.3274   -2.3058   -4.5608 C.3       1 <0>        -0.0827
     27 C18         3.2862   -1.3150   -5.1211 C.3       1 <0>        -0.1182
     28 C19         3.2327   -1.6360   -6.6354 C.3       1 <0>        -0.1271
     29 C20         3.3661   -3.1789   -6.6626 C.3       1 <0>        -0.1261
     30 C21         4.3783   -3.4909   -5.5410 C.3       1 <0>        -0.1213
     31 H2         -0.9387    1.9110   -0.0148 H         1 <0>         0.1276
     32 H3          1.1786    3.1681   -0.0183 H         1 <0>         0.1291
     33 H4          3.3259    1.9630   -0.0286 H         1 <0>         0.1262
     34 H5          1.2385   -1.7562   -0.0391 H         1 <0>         0.1292
     35 H6         -0.9087   -0.5511   -0.0303 H         1 <0>         0.1285
     36 H7          4.3117    0.6723    2.1185 H         1 <0>         0.4217
     37 H8          5.5037   -2.5026    3.0668 H         1 <0>         0.1724
     38 H9          5.8629   -3.2545    5.3824 H         1 <0>         0.1669
     39 H10         3.8865    0.2356    6.8337 H         1 <0>         0.1688
     40 H11         4.5613   -3.5900   -2.8471 H         1 <0>         0.1101
     41 H12         2.8743   -3.1634   -3.2216 H         1 <0>         0.1099
     42 H13         5.3052   -1.8276   -4.5022 H         1 <0>         0.0832
     43 H14         2.3127   -1.4837   -4.6607 H         1 <0>         0.0618
     44 H15         3.6123   -0.2874   -4.9603 H         1 <0>         0.0733
     45 H16         2.2802   -1.3231   -7.0632 H         1 <0>         0.0662
     46 H17         4.0654   -1.1670   -7.1594 H         1 <0>         0.0675
     47 H18         2.4056   -3.6487   -6.4511 H         1 <0>         0.0659
     48 H19         3.7506   -3.5117   -7.6267 H         1 <0>         0.0663
     49 H20         5.3805   -3.5873   -5.9586 H         1 <0>         0.0691
     50 H21         4.0965   -4.4111   -5.0291 H         1 <0>         0.0686
@<TRIPOS>BOND
     1    1    6 ar
     2    1    2 ar
     3    1   31 1
     4    2    3 ar
     5    2   32 1
     6    3    4 ar
     7    3   33 1
     8    4    5 ar
     9    4    7 1
    10    5    6 ar
    11    5   34 1
    12    6   35 1
    13    7    8 1
    14    7    9 1
    15    7   22 1
    16    9   10 2
    17    9   11 am
    18   11   12 1
    19   11   36 1
    20   12   17 ar
    21   12   13 ar
    22   13   14 ar
    23   13   37 1
    24   14   15 ar
    25   14   38 1
    26   15   16 ar
    27   15   19 1
    28   16   17 ar
    29   16   39 1
    30   17   18 1
    31   19   20 2
    32   19   21 1
    33   22   23 1
    34   23   24 2
    35   23   25 1
    36   25   26 1
    37   25   40 1
    38   25   41 1
    39   26   30 1
    40   26   27 1
    41   26   42 1
    42   27   28 1
    43   27   43 1
    44   27   44 1
    45   28   29 1
    46   28   45 1
    47   28   46 1
    48   29   30 1
    49   29   47 1
    50   29   48 1
    51   30   49 1
    52   30   50 1
@<TRIPOS>MOLECULE
ZINC59073642
   46    49     0     0     0
SMALL
USER_CHARGES

@<TRIPOS>ATOM
      1 C1         -0.8172   -1.3309   -0.1895 C.ar      1 <0>        -0.1086
      2 C2          0.0669   -0.2741   -0.3003 C.ar      1 <0>        -0.1242
      3 C3          1.4292   -0.5080   -0.2839 C.ar      1 <0>        -0.0961
      4 C4          1.9074   -1.7987   -0.1562 C.ar      1 <0>        -0.0976
      5 C5          1.0233   -2.8554   -0.0444 C.ar      1 <0>        -0.0892
      6 C6         -0.3391   -2.6217   -0.0623 C.ar      1 <0>        -0.1228
      7 C7          3.3925   -2.0538   -0.1393 C.3       1 <0>         0.1102
      8 O1          3.8700   -1.9988    1.2065 O.3       1 <0>        -0.3268
      9 C8          5.1890   -2.2074    1.3973 C.2       1 <0>         0.5113
     10 O2          5.9133   -2.4299    0.4461 O.2       1 <0>        -0.4996
     11 C9          5.7497   -2.1659    2.7522 C.2       1 <0>         0.0688
     12 C10         7.0745   -2.3754    2.9439 C.2       1 <0>        -0.0034
     13 C11         7.6109   -2.4876    4.3073 C.ar      1 <0>        -0.0745
     14 C12         6.7536   -2.7636    5.3787 C.ar      1 <0>        -0.0977
     15 C13         7.2596   -2.8688    6.6555 C.ar      1 <0>        -0.1020
     16 C14         8.6189   -2.7019    6.8853 C.ar      1 <0>         0.0552
     17 C15         9.4800   -2.4264    5.8222 C.ar      1 <0>         0.0299
     18 C16         8.9816   -2.3247    4.5382 C.ar      1 <0>        -0.0681
     19 O3         10.7499   -2.3088    6.3098 O.3       1 <0>        -0.3049
     20 C17        10.5998   -2.1086    7.7276 C.3       1 <0>         0.2119
     21 O4          9.3515   -2.7565    8.0351 O.3       1 <0>        -0.3042
     22 N1          4.9162   -1.9099    3.8467 N.am      1 <0>        -0.6638
     23 C18         3.8513   -2.7016    4.0825 C.2       1 <0>         0.6062
     24 O5          3.5508   -3.5710    3.2852 O.2       1 <0>        -0.4731
     25 C19         3.0552   -2.5158    5.2986 C.2       1 <0>        -0.0633
     26 C20         2.0157   -3.3033    5.7055 C.2       1 <0>        -0.1038
     27 C21         1.5490   -2.7637    6.9133 C.2       1 <0>        -0.1634
     28 C22         2.3145   -1.6825    7.1886 C.2       1 <0>         0.0023
     29 O6          3.2243   -1.5401    6.2156 O.3       1 <0>        -0.1477
     30 Br1         2.1344   -0.5615    8.7009 Br        1 <0>         0.0693
     31 H1         -1.8816   -1.1477   -0.1978 H         1 <0>         0.1244
     32 H2         -0.3067    0.7343   -0.4001 H         1 <0>         0.1251
     33 H3          2.1199    0.3176   -0.3712 H         1 <0>         0.1230
     34 H4          1.3969   -3.8639    0.0550 H         1 <0>         0.1251
     35 H5         -1.0298   -3.4473    0.0247 H         1 <0>         0.1257
     36 H6          3.5967   -3.0395   -0.5573 H         1 <0>         0.0791
     37 H7          3.8984   -1.2944   -0.7356 H         1 <0>         0.0774
     38 H8          7.7363   -2.4599    2.0946 H         1 <0>         0.1636
     39 H9          5.6957   -2.8937    5.2044 H         1 <0>         0.1495
     40 H10         6.5966   -3.0815    7.4811 H         1 <0>         0.1403
     41 H11         9.6479   -2.1156    3.7143 H         1 <0>         0.1460
     42 H12        11.4196   -2.5800    8.2698 H         1 <0>         0.1362
     43 H13        10.5468   -1.0451    7.9607 H         1 <0>         0.0889
     44 H14         5.1050   -1.1627    4.4358 H         1 <0>         0.4207
     45 H15         1.6280   -4.1730    5.1958 H         1 <0>         0.1731
     46 H16         0.7318   -3.1400    7.5108 H         1 <0>         0.1717
@<TRIPOS>BOND
     1    1    6 ar
     2    1    2 ar
     3    1   31 1
     4    2    3 ar
     5    2   32 1
     6    3    4 ar
     7    3   33 1
     8    4    5 ar
     9    4    7 1
    10    5    6 ar
    11    5   34 1
    12    6   35 1
    13    7    8 1
    14    7   36 1
    15    7   37 1
    16    8    9 1
    17    9   10 2
    18    9   11 1
    19   11   12 2
    20   11   22 1
    21   12   13 1
    22   12   38 1
    23   13   18 ar
    24   13   14 ar
    25   14   15 ar
    26   14   39 1
    27   15   16 ar
    28   15   40 1
    29   16   21 1
    30   16   17 ar
    31   17   18 ar
    32   17   19 1
    33   18   41 1
    34   19   20 1
    35   20   21 1
    36   20   42 1
    37   20   43 1
    38   22   23 am
    39   22   44 1
    40   23   24 2
    41   23   25 1
    42   25   29 1
    43   25   26 2
    44   26   27 1
    45   26   45 1
    46   27   28 2
    47   27   46 1
    48   28   29 1
    49   28   30 1
@<TRIPOS>MOLECULE
ZINC05864278
   49    51     0     0     0
SMALL
USER_CHARGES
methyl 2,4-dimethyl-5-[2-[[5-(p-tolyl)-1,3,4-oxadiazol-2-yl]sulfanyl]propanoyl]-1H-pyrrole-3-carboxylate
@<TRIPOS>ATOM
      1 C1          8.3985    5.6643   11.4870 C.3       1 <0>        -0.1225
      2 C2          7.4131    5.1488   10.4699 C.ar      1 <0>        -0.0552
      3 C3          6.1085    4.8842   10.8475 C.ar      1 <0>        -0.1222
      4 C4          5.2017    4.4113    9.9218 C.ar      1 <0>        -0.0594
      5 C5          5.6028    4.2001    8.6013 C.ar      1 <0>        -0.0386
      6 C6          6.9219    4.4646    8.2282 C.ar      1 <0>        -0.0764
      7 C7          7.8172    4.9418    9.1629 C.ar      1 <0>        -0.1220
      8 C8          4.6371    3.6933    7.6045 C.2       1 <0>         0.2211
      9 N1          3.3780    3.4018    7.8225 N.2       1 <0>        -0.2666
     10 N2          2.8390    2.9891    6.7296 N.2       1 <0>        -0.2840
     11 C9          3.7345    3.0009    5.7692 C.2       1 <0>         0.1228
     12 O1          4.8908    3.4408    6.3012 O.3       1 <0>        -0.1983
     13 S1          3.4733    2.5217    4.0939 S.3       1 <0>         0.1349
     14 C10         1.7244    2.0612    4.1678 C.3       1 <0>        -0.1398
     15 H1          1.1932    2.8267    4.5310 H         1 <0>         0.1103
     16 C11         1.5554    0.8448    5.0803 C.3       1 <0>        -0.1496
     17 C12         1.2352    1.7224    2.7832 C.2       1 <0>         0.4461
     18 O2          2.0199    1.3426    1.9382 O.2       1 <0>        -0.4280
     19 C13        -0.1391    1.8468    2.4680 C.2       1 <0>        -0.0962
     20 C14        -0.7181    1.5718    1.2479 C.2       1 <0>         0.0061
     21 C15        -2.0976    1.8387    1.3810 C.2       1 <0>        -0.2187
     22 C16        -2.3090    2.2593    2.6827 C.2       1 <0>         0.1416
     23 N3         -1.1336    2.2656    3.3284 N.pl3     1 <0>        -0.5139
     24 H2         -1.0030    2.5237    4.2542 H         1 <0>         0.4273
     25 C17        -3.6384    2.6512    3.2743 C.3       1 <0>        -0.1062
     26 C18        -3.1212    1.6939    0.3320 C.2       1 <0>         0.5463
     27 O3         -3.7075    0.6380    0.1967 O.2       1 <0>        -0.4932
     28 O4         -3.4076    2.7322   -0.4778 O.3       1 <0>        -0.3508
     29 C19        -4.4272    2.5178   -1.4891 C.3       1 <0>         0.0326
     30 C20        -0.0127    1.0858    0.0080 C.3       1 <0>        -0.1049
     31 H3          8.8995    4.8233   11.9662 H         1 <0>         0.0780
     32 H4          9.1378    6.2928   10.9905 H         1 <0>         0.0718
     33 H5          7.8707    6.2498   12.2399 H         1 <0>         0.0722
     34 H6          5.7996    5.0480   11.8694 H         1 <0>         0.1362
     35 H7          4.1839    4.2045   10.2180 H         1 <0>         0.1405
     36 H8          7.2396    4.2995    7.2093 H         1 <0>         0.1329
     37 H9          8.8370    5.1503    8.8748 H         1 <0>         0.1345
     38 H10         2.1344    0.0104    4.6845 H         1 <0>         0.0796
     39 H11         1.9092    1.0899    6.0817 H         1 <0>         0.0909
     40 H12         0.5022    0.5675    5.1248 H         1 <0>         0.0760
     41 H13        -3.8027    3.7182    3.1239 H         1 <0>         0.0935
     42 H14        -4.4337    2.0886    2.7853 H         1 <0>         0.0905
     43 H15        -3.6404    2.4302    4.3417 H         1 <0>         0.0830
     44 H16        -4.1189    1.7075   -2.1498 H         1 <0>         0.0652
     45 H17        -5.3683    2.2547   -1.0062 H         1 <0>         0.0649
     46 H18        -4.5598    3.4301   -2.0706 H         1 <0>         0.1043
     47 H19         0.0021   -0.0041    0.0020 H         1 <0>         0.0827
     48 H20         1.0099    1.4631    0.0003 H         1 <0>         0.0915
     49 H21        -0.5399    1.4469   -0.8751 H         1 <0>         0.0693
@<TRIPOS>BOND
     1    1    2 1
     2    1   31 1
     3    1   32 1
     4    1   33 1
     5    2    7 ar
     6    2    3 ar
     7    3    4 ar
     8    3   34 1
     9    4    5 ar
    10    4   35 1
    11    5    6 ar
    12    5    8 1
    13    6    7 ar
    14    6   36 1
    15    7   37 1
    16    8   12 1
    17    8    9 2
    18    9   10 1
    19   10   11 2
    20   11   12 1
    21   11   13 1
    22   13   14 1
    23   14   15 1
    24   14   16 1
    25   14   17 1
    26   16   38 1
    27   16   39 1
    28   16   40 1
    29   17   18 2
    30   17   19 1
    31   19   23 1
    32   19   20 2
    33   20   21 1
    34   20   30 1
    35   21   22 2
    36   21   26 1
    37   22   23 1
    38   22   25 1
    39   23   24 1
    40   25   41 1
    41   25   42 1
    42   25   43 1
    43   26   27 2
    44   26   28 1
    45   28   29 1
    46   29   44 1
    47   29   45 1
    48   29   46 1
    49   30   47 1
    50   30   48 1
    51   30   49 1
@<TRIPOS>MOLECULE
ZINC15669141
   55    58     0     0     0
SMALL
USER_CHARGES
2-methoxy-N-[2-[(2-methylimidazol-1-yl)methyl]-1-propyl-benzimidazol-5-yl]benzamide
@<TRIPOS>ATOM
      1 C1          2.3308    5.9050    1.5903 C.3       1 <0>        -0.1514
      2 C2          2.3039    4.4660    2.1093 C.3       1 <0>        -0.1412
      3 C3          3.6145    3.7670    1.7426 C.3       1 <0>         0.1057
      4 N1          3.5436    2.3580    2.1376 N.pl3     1 <0>        -0.4767
      5 C4          3.8382    1.8409    3.3853 C.ar      1 <0>         0.0465
      6 C5          4.2614    2.3985    4.5843 C.ar      1 <0>        -0.0921
      7 C6          4.4797    1.5909    5.6785 C.ar      1 <0>        -0.0909
      8 C7          4.2783    0.2146    5.5903 C.ar      1 <0>         0.1490
      9 C8          3.8572   -0.3555    4.4039 C.ar      1 <0>        -0.0933
     10 C9          3.6328    0.4546    3.2877 C.ar      1 <0>         0.0662
     11 N2          3.2278    0.2028    2.0162 N.2       1 <0>        -0.4689
     12 C10         3.1731    1.3164    1.3455 C.2       1 <0>         0.2535
     13 C11         2.7649    1.4341   -0.1004 C.3       1 <0>         0.1873
     14 N3          3.9286    1.1944   -0.9574 N.pl3     1 <0>        -0.4576
     15 C12         4.7636    2.1458   -1.4781 C.2       1 <0>        -0.0685
     16 C13         5.6906    1.4944   -2.2061 C.2       1 <0>        -0.0173
     17 N4          5.4337    0.1804   -2.1249 N.2       1 <0>        -0.4923
     18 C14         4.3778   -0.0066   -1.3812 C.2       1 <0>         0.2292
     19 C15         3.7616   -1.3415   -1.0506 C.3       1 <0>        -0.0774
     20 N5          4.5044   -0.5953    6.7102 N.am      1 <0>        -0.6717
     21 C16         5.4737   -0.2738    7.5897 C.2       1 <0>         0.5632
     22 O1          6.2128    0.6650    7.3637 O.2       1 <0>        -0.4970
     23 C17         5.6380   -1.0607    8.8265 C.ar      1 <0>        -0.1785
     24 C18         4.7873   -2.1366    9.0930 C.ar      1 <0>        -0.0463
     25 C19         4.9489   -2.8704   10.2480 C.ar      1 <0>        -0.1660
     26 C20         5.9455   -2.5404   11.1522 C.ar      1 <0>        -0.0468
     27 C21         6.7896   -1.4766   10.9038 C.ar      1 <0>        -0.2199
     28 C22         6.6446   -0.7300    9.7439 C.ar      1 <0>         0.1895
     29 O2          7.4730    0.3159    9.4987 O.3       1 <0>        -0.2818
     30 C23         8.4751    0.5934   10.4789 C.3       1 <0>         0.0199
     31 H1          3.1664    6.4390    2.0429 H         1 <0>         0.0602
     32 H2          2.4482    5.8983    0.5067 H         1 <0>         0.0589
     33 H3          1.3971    6.4031    1.8516 H         1 <0>         0.0652
     34 H4          1.4683    3.9321    1.6567 H         1 <0>         0.0698
     35 H5          2.1865    4.4728    3.1930 H         1 <0>         0.0732
     36 H6          4.4416    4.2492    2.2637 H         1 <0>         0.0943
     37 H7          3.7739    3.8351    0.6665 H         1 <0>         0.0910
     38 H8          4.4189    3.4644    4.6591 H         1 <0>         0.1267
     39 H9          4.8085    2.0268    6.6103 H         1 <0>         0.1450
     40 H10         3.7027   -1.4224    4.3396 H         1 <0>         0.1349
     41 H11         2.3757    2.4349   -0.2877 H         1 <0>         0.1127
     42 H12         1.9930    0.6968   -0.3211 H         1 <0>         0.1291
     43 H13         4.6904    3.2139   -1.3362 H         1 <0>         0.1715
     44 H14         6.5004    1.9500   -2.7566 H         1 <0>         0.1707
     45 H15         3.0801   -1.6348   -1.8490 H         1 <0>         0.0806
     46 H16         4.5478   -2.0898   -0.9507 H         1 <0>         0.0886
     47 H17         3.2112   -1.2653   -0.1128 H         1 <0>         0.0878
     48 H18         3.9634   -1.3877    6.8529 H         1 <0>         0.4094
     49 H19         4.0065   -2.3948    8.3931 H         1 <0>         0.1329
     50 H20         4.2932   -3.7041   10.4513 H         1 <0>         0.1332
     51 H21         6.0625   -3.1187   12.0568 H         1 <0>         0.1325
     52 H22         7.5637   -1.2251   11.6137 H         1 <0>         0.1373
     53 H23         7.9981    0.8152   11.4336 H         1 <0>         0.0578
     54 H24         9.1247   -0.2749   10.5904 H         1 <0>         0.0579
     55 H25         9.0671    1.4515   10.1605 H         1 <0>         0.1046
@<TRIPOS>BOND
     1    1    2 1
     2    1   31 1
     3    1   32 1
     4    1   33 1
     5    2    3 1
     6    2   34 1
     7    2   35 1
     8    3    4 1
     9    3   36 1
    10    3   37 1
    11    4   12 1
    12    4    5 1
    13    5   10 ar
    14    5    6 ar
    15    6    7 ar
    16    6   38 1
    17    7    8 ar
    18    7   39 1
    19    8    9 ar
    20    8   20 1
    21    9   10 ar
    22    9   40 1
    23   10   11 1
    24   11   12 2
    25   12   13 1
    26   13   14 1
    27   13   41 1
    28   13   42 1
    29   14   18 1
    30   14   15 1
    31   15   16 2
    32   15   43 1
    33   16   17 1
    34   16   44 1
    35   17   18 2
    36   18   19 1
    37   19   45 1
    38   19   46 1
    39   19   47 1
    40   20   21 am
    41   20   48 1
    42   21   22 2
    43   21   23 1
    44   23   28 ar
    45   23   24 ar
    46   24   25 ar
    47   24   49 1
    48   25   26 ar
    49   25   50 1
    50   26   27 ar
    51   26   51 1
    52   27   28 ar
    53   27   52 1
    54   28   29 1
    55   29   30 1
    56   30   53 1
    57   30   54 1
    58   30   55 1
@<TRIPOS>MOLECULE
ZINC36289887
   51    54     0     0     0
SMALL
USER_CHARGES

@<TRIPOS>ATOM
      1 C1         -0.0092    1.3920    0.0273 C.ar      1 <0>        -0.1012
      2 C2          0.5493    0.9439    1.2109 C.ar      1 <0>        -0.1005
      3 C3          1.7530    0.2691    1.1970 C.ar      1 <0>        -0.0428
      4 C4          2.4059    0.0388   -0.0130 C.ar      1 <0>        -0.0287
      5 C5          1.8379    0.4923   -1.2027 C.ar      1 <0>        -0.0905
      6 C6          0.6341    1.1664   -1.1764 C.ar      1 <0>        -0.1285
      7 C7          3.6993   -0.6851   -0.0346 C.2       1 <0>         0.1695
      8 C8          4.0260   -1.9073    0.7048 C.2       1 <0>        -0.1909
      9 C9          5.3191   -2.2218    0.3894 C.2       1 <0>         0.0971
     10 N1          5.7775   -1.2892   -0.4708 N.pl3     1 <0>        -0.3153
     11 N2          4.7690   -0.3548   -0.7256 N.2       1 <0>        -0.2730
     12 C10         7.0632   -1.2634   -1.0261 C.ar      1 <0>         0.1544
     13 C11         7.9800   -2.2556   -0.7048 C.ar      1 <0>        -0.1408
     14 C12         9.2469   -2.2273   -1.2540 C.ar      1 <0>        -0.0922
     15 C13         9.6028   -1.2123   -2.1230 C.ar      1 <0>        -0.1263
     16 C14         8.6923   -0.2224   -2.4446 C.ar      1 <0>        -0.0940
     17 C15         7.4218   -0.2485   -1.9036 C.ar      1 <0>        -0.1163
     18 C16         3.1350   -2.6521    1.6122 C.2       1 <0>         0.1499
     19 N3          1.8942   -2.2937    1.7421 N.2       1 <0>        -0.2210
     20 N4          1.0472   -3.0017    2.6047 N.am      1 <0>        -0.5844
     21 C17        -0.2412   -2.6296    2.7396 C.2       1 <0>         0.5267
     22 O1         -0.6674   -1.6815    2.1139 O.2       1 <0>        -0.4608
     23 C18        -1.1523   -3.3911    3.6675 C.3       1 <0>         0.0464
     24 O2         -2.4571   -2.8092    3.6375 O.3       1 <0>        -0.2818
     25 C19        -3.4047   -3.3805    4.4232 C.ar      1 <0>         0.1739
     26 C20        -3.0873   -4.4752    5.2126 C.ar      1 <0>        -0.2123
     27 C21        -4.0526   -5.0557    6.0118 C.ar      1 <0>        -0.0478
     28 C22        -5.3423   -4.5509    6.0316 C.ar      1 <0>        -0.1549
     29 C23        -5.6753   -3.4631    5.2537 C.ar      1 <0>        -0.0308
     30 C24        -4.7071   -2.8629    4.4446 C.ar      1 <0>        -0.0536
     31 C25        -5.0448   -1.7290    3.6379 C.1       1 <0>         0.2537
     32 N5         -5.3127   -0.8295    2.9980 N.1       1 <0>        -0.4046
     33 H1         -0.9535    1.9160    0.0427 H         1 <0>         0.1196
     34 H2          0.0426    1.1229    2.1477 H         1 <0>         0.1187
     35 H3          2.1885   -0.0796    2.1217 H         1 <0>         0.1157
     36 H4          2.3394    0.3170   -2.1430 H         1 <0>         0.1197
     37 H5          0.1933    1.5185   -2.0973 H         1 <0>         0.1220
     38 H6          5.8759   -3.0681    0.7638 H         1 <0>         0.1893
     39 H7          7.7027   -3.0485   -0.0258 H         1 <0>         0.1310
     40 H8          9.9605   -2.9986   -1.0042 H         1 <0>         0.1345
     41 H9         10.5941   -1.1923   -2.5511 H         1 <0>         0.1304
     42 H10         8.9735    0.5694   -3.1231 H         1 <0>         0.1339
     43 H11         6.7096    0.5221   -2.1589 H         1 <0>         0.1392
     44 H12         3.5144   -3.4960    2.1692 H         1 <0>         0.1247
     45 H13         1.3880   -3.7597    3.1049 H         1 <0>         0.3841
     46 H14        -1.2108   -4.4311    3.3465 H         1 <0>         0.1018
     47 H15        -0.7575   -3.3458    4.6824 H         1 <0>         0.1021
     48 H16        -2.0840   -4.8748    5.2023 H         1 <0>         0.1385
     49 H17        -3.8004   -5.9085    6.6246 H         1 <0>         0.1358
     50 H18        -6.0905   -5.0121    6.6593 H         1 <0>         0.1379
     51 H19        -6.6821   -3.0728    5.2722 H         1 <0>         0.1424
@<TRIPOS>BOND
     1    1    6 ar
     2    1    2 ar
     3    1   33 1
     4    2    3 ar
     5    2   34 1
     6    3    4 ar
     7    3   35 1
     8    4    5 ar
     9    4    7 1
    10    5    6 ar
    11    5   36 1
    12    6   37 1
    13    7   11 2
    14    7    8 1
    15    8    9 2
    16    8   18 1
    17    9   10 1
    18    9   38 1
    19   10   11 1
    20   10   12 1
    21   12   17 ar
    22   12   13 ar
    23   13   14 ar
    24   13   39 1
    25   14   15 ar
    26   14   40 1
    27   15   16 ar
    28   15   41 1
    29   16   17 ar
    30   16   42 1
    31   17   43 1
    32   18   19 2
    33   18   44 1
    34   19   20 1
    35   20   21 am
    36   20   45 1
    37   21   22 2
    38   21   23 1
    39   23   24 1
    40   23   46 1
    41   23   47 1
    42   24   25 1
    43   25   30 ar
    44   25   26 ar
    45   26   27 ar
    46   26   48 1
    47   27   28 ar
    48   27   49 1
    49   28   29 ar
    50   28   50 1
    51   29   30 ar
    52   29   51 1
    53   30   31 1
    54   31   32 3
@<TRIPOS>MOLECULE
ZINC44204678
   48    50     0     0     0
SMALL
USER_CHARGES

@<TRIPOS>ATOM
      1 C1         -0.0225    1.8415   -0.0078 C.3       1 <0>        -0.6511
      2 S1          0.0068    0.0277   -0.0043 S.o2      1 <0>         2.5046
      3 O1          0.8429   -0.4463    1.0424 O.2       1 <0>        -0.9387
      4 O2         -1.3089   -0.4833   -0.1682 O.2       1 <0>        -0.9371
      5 C2          0.8489   -0.4144   -1.4876 C.ar      1 <0>        -0.6971
      6 C3          0.1353   -0.6000   -2.6572 C.ar      1 <0>         0.0168
      7 C4          0.7931   -0.9471   -3.8213 C.ar      1 <0>        -0.1646
      8 C5          2.1709   -1.1090   -3.8163 C.ar      1 <0>         0.1823
      9 C6          2.8847   -0.9217   -2.6415 C.ar      1 <0>        -0.2316
     10 C7          2.2228   -0.5696   -1.4812 C.ar      1 <0>         0.0188
     11 O3          2.8203   -1.4508   -4.9601 O.3       1 <0>        -0.2827
     12 C8          4.2392   -1.6003   -4.8807 C.3       1 <0>         0.0389
     13 C9          4.7811   -1.9782   -6.2351 C.2       1 <0>         0.5164
     14 O4          4.0265   -2.1069   -7.1758 O.2       1 <0>        -0.4860
     15 N1          6.1044   -2.1733   -6.4011 N.am      1 <0>        -0.6685
     16 C10         6.5958   -2.6165   -7.6301 C.ar      1 <0>         0.1721
     17 C11         5.9964   -2.1906   -8.8112 C.ar      1 <0>        -0.1264
     18 C12         6.4780   -2.6254  -10.0254 C.ar      1 <0>        -0.0345
     19 C13         7.5716   -3.4966  -10.0706 C.ar      1 <0>         0.0321
     20 C14         8.1713   -3.9224   -8.8806 C.ar      1 <0>        -0.0748
     21 C15         7.6871   -3.4784   -7.6707 C.ar      1 <0>        -0.1471
     22 N2          8.0518   -3.9304  -11.2723 N.2       1 <0>        -0.2093
     23 N3          9.0603   -4.7337  -11.3119 N.2       1 <0>        -0.2152
     24 C16         9.5413   -5.1682  -12.5155 C.ar      1 <0>         0.0427
     25 C17         8.9466   -4.7396  -13.7053 C.ar      1 <0>        -0.0970
     26 C18         9.4372   -5.1821  -14.9159 C.ar      1 <0>        -0.1258
     27 C19        10.5154   -6.0488  -14.9542 C.ar      1 <0>        -0.0908
     28 C20        11.1092   -6.4779  -13.7801 C.ar      1 <0>        -0.1255
     29 C21        10.6337   -6.0385  -12.5623 C.ar      1 <0>        -0.0575
     30 H1          0.9991    2.2213   -0.0200 H         1 <0>         0.1307
     31 H2         -0.5520    2.1946   -0.8926 H         1 <0>         0.1317
     32 H3         -0.5321    2.1983    0.8872 H         1 <0>         0.1331
     33 H4         -0.9373   -0.4739   -2.6606 H         1 <0>         0.1518
     34 H5          0.2352   -1.0927   -4.7345 H         1 <0>         0.1453
     35 H6          3.9574   -1.0471   -2.6350 H         1 <0>         0.1390
     36 H7          2.7785   -0.4194   -0.5674 H         1 <0>         0.1472
     37 H8          4.6863   -0.6593   -4.5601 H         1 <0>         0.1040
     38 H9          4.4825   -2.3819   -4.1610 H         1 <0>         0.1044
     39 H10         6.7152   -2.0056   -5.6665 H         1 <0>         0.4164
     40 H11         5.1520   -1.5183   -8.7754 H         1 <0>         0.1496
     41 H12         6.0119   -2.2946  -10.9418 H         1 <0>         0.1415
     42 H13         9.0158   -4.5950   -8.9112 H         1 <0>         0.1433
     43 H14         8.1525   -3.8029   -6.7518 H         1 <0>         0.1342
     44 H15         8.1046   -4.0638  -13.6769 H         1 <0>         0.1370
     45 H16         8.9787   -4.8517  -15.8362 H         1 <0>         0.1289
     46 H17        10.8952   -6.3923  -15.9051 H         1 <0>         0.1292
     47 H18        11.9498   -7.1548  -13.8176 H         1 <0>         0.1338
     48 H19        11.1011   -6.3704  -11.6470 H         1 <0>         0.1353
@<TRIPOS>BOND
     1    1    2 1
     2    1   30 1
     3    1   31 1
     4    1   32 1
     5    2    3 2
     6    2    4 2
     7    2    5 1
     8    5   10 ar
     9    5    6 ar
    10    6    7 ar
    11    6   33 1
    12    7    8 ar
    13    7   34 1
    14    8    9 ar
    15    8   11 1
    16    9   10 ar
    17    9   35 1
    18   10   36 1
    19   11   12 1
    20   12   13 1
    21   12   37 1
    22   12   38 1
    23   13   14 2
    24   13   15 am
    25   15   16 1
    26   15   39 1
    27   16   21 ar
    28   16   17 ar
    29   17   18 ar
    30   17   40 1
    31   18   19 ar
    32   18   41 1
    33   19   20 ar
    34   19   22 1
    35   20   21 ar
    36   20   42 1
    37   21   43 1
    38   22   23 2
    39   23   24 1
    40   24   29 ar
    41   24   25 ar
    42   25   26 ar
    43   25   44 1
    44   26   27 ar
    45   26   45 1
    46   27   28 ar
    47   27   46 1
    48   28   29 ar
    49   28   47 1
    50   29   48 1
@<TRIPOS>MOLECULE
ZINC59303334
   59    62     0     0     0
SMALL
USER_CHARGES

@<TRIPOS>ATOM
      1 C1         -0.0187    1.5258    0.0104 C.3       1 <0>        -0.1740
      2 C2          0.0021   -0.0041    0.0020 C.3       1 <0>         0.1087
      3 N1          0.6878   -0.4765   -1.2033 N.am      1 <0>        -0.6215
      4 C3          2.1353   -0.7012   -1.1821 C.3       1 <0>         0.1471
      5 C4          2.4212   -2.1448   -0.7635 C.3       1 <0>         0.0348
      6 H1          1.9595   -2.8315   -1.4729 H         1 <0>         0.0902
      7 C5          3.9370   -2.3820   -0.7254 C.3       1 <0>         0.0293
      8 O1          4.1689   -3.7347   -0.3176 O.3       1 <0>        -0.3042
      9 C6          3.4576   -4.1809    0.7536 C.ar      1 <0>         0.0478
     10 C7          3.8764   -5.3222    1.4213 C.ar      1 <0>        -0.1137
     11 C8          3.1628   -5.7894    2.5086 C.ar      1 <0>        -0.1165
     12 C9          2.0299   -5.1207    2.9339 C.ar      1 <0>        -0.1158
     13 C10         1.6080   -3.9821    2.2740 C.ar      1 <0>        -0.1153
     14 C11         2.3203   -3.5072    1.1828 C.ar      1 <0>         0.0527
     15 O2          1.8965   -2.3802    0.5477 O.3       1 <0>        -0.3007
     16 C12        -0.0130   -0.7045   -2.3317 C.2       1 <0>         0.7090
     17 O3          0.5561   -1.0966   -3.3321 O.2       1 <0>        -0.5888
     18 N2         -1.3447   -0.4978   -2.3513 N.am      1 <0>        -0.7357
     19 C13        -2.1065   -0.7456   -3.5779 C.3       1 <0>         0.1954
     20 C14        -3.5622   -0.4402   -3.3354 C.ar      1 <0>        -0.1865
     21 C15        -4.4597   -1.4620   -3.0778 C.ar      1 <0>        -0.0207
     22 C16        -5.7908   -1.1347   -2.8605 C.ar      1 <0>        -0.2140
     23 C17        -6.1770    0.1903   -2.9074 C.ar      1 <0>         0.1499
     24 N3         -5.2981    1.1424   -3.1558 N.ar      1 <0>        -0.5405
     25 C18        -4.0201    0.8707   -3.3619 C.ar      1 <0>         0.3418
     26 O4         -3.1492    1.8817   -3.6073 O.3       1 <0>        -0.2916
     27 C19        -3.6819    3.2077   -3.6213 C.3       1 <0>         0.0848
     28 C20        -4.0745    3.6043   -5.0595 C.3       1 <0>        -0.1397
     29 C21        -3.7035    5.1051   -5.1543 C.3       1 <0>        -0.1236
     30 C22        -2.3862    5.1835   -4.3433 C.3       1 <0>        -0.1234
     31 C23        -2.6084    4.2118   -3.1660 C.3       1 <0>        -0.1236
     32 H2          1.0039    1.9031    0.0027 H         1 <0>         0.0607
     33 H3         -0.5459    1.8868   -0.8726 H         1 <0>         0.0581
     34 H4         -0.5289    1.8773    0.9072 H         1 <0>         0.0682
     35 H5          0.5293   -0.3651    0.8851 H         1 <0>         0.0907
     36 H6         -1.0205   -0.3814    0.0098 H         1 <0>         0.0701
     37 H7          2.5453   -0.5232   -2.1762 H         1 <0>         0.1108
     38 H8          2.5986   -0.0180   -0.4703 H         1 <0>         0.0904
     39 H9          4.3595   -2.2194   -1.7170 H         1 <0>         0.1251
     40 H10         4.3982   -1.6988   -0.0122 H         1 <0>         0.0795
     41 H11         4.7610   -5.8464    1.0909 H         1 <0>         0.1344
     42 H12         3.4908   -6.6781    3.0272 H         1 <0>         0.1324
     43 H13         1.4735   -5.4890    3.7831 H         1 <0>         0.1318
     44 H14         0.7227   -3.4617    2.6083 H         1 <0>         0.1323
     45 H15        -1.7987   -0.1850   -1.5532 H         1 <0>         0.3962
     46 H16        -1.7290   -0.1058   -4.3755 H         1 <0>         0.0807
     47 H17        -1.9980   -1.7906   -3.8681 H         1 <0>         0.0758
     48 H18        -4.1317   -2.4905   -3.0470 H         1 <0>         0.1432
     49 H19        -6.5169   -1.9079   -2.6572 H         1 <0>         0.1406
     50 H20        -7.2116    0.4504   -2.7390 H         1 <0>         0.1617
     51 H21        -4.5510    3.2676   -2.9663 H         1 <0>         0.0930
     52 H22        -3.5040    3.0238   -5.7845 H         1 <0>         0.0744
     53 H23        -5.1443    3.4653   -5.2150 H         1 <0>         0.0728
     54 H24        -3.5367    5.3971   -6.1912 H         1 <0>         0.0715
     55 H25        -4.4759    5.7236   -4.6972 H         1 <0>         0.0704
     56 H26        -1.5431    4.8580   -4.9527 H         1 <0>         0.0692
     57 H27        -2.2240    6.1969   -3.9761 H         1 <0>         0.0704
     58 H28        -2.9570    4.7595   -2.2904 H         1 <0>         0.0763
     59 H29        -1.6812    3.6876   -2.9343 H         1 <0>         0.0775
@<TRIPOS>BOND
     1    1    2 1
     2    1   32 1
     3    1   33 1
     4    1   34 1
     5    2    3 1
     6    2   35 1
     7    2   36 1
     8    3    4 1
     9    3   16 am
    10    4    5 1
    11    4   37 1
    12    4   38 1
    13    5    6 1
    14    5   15 1
    15    5    7 1
    16    7    8 1
    17    7   39 1
    18    7   40 1
    19    8    9 1
    20    9   14 ar
    21    9   10 ar
    22   10   11 ar
    23   10   41 1
    24   11   12 ar
    25   11   42 1
    26   12   13 ar
    27   12   43 1
    28   13   14 ar
    29   13   44 1
    30   14   15 1
    31   16   17 2
    32   16   18 am
    33   18   19 1
    34   18   45 1
    35   19   20 1
    36   19   46 1
    37   19   47 1
    38   20   25 ar
    39   20   21 ar
    40   21   22 ar
    41   21   48 1
    42   22   23 ar
    43   22   49 1
    44   23   24 ar
    45   23   50 1
    46   24   25 ar
    47   25   26 1
    48   26   27 1
    49   27   31 1
    50   27   28 1
    51   27   51 1
    52   28   29 1
    53   28   52 1
    54   28   53 1
    55   29   30 1
    56   29   54 1
    57   29   55 1
    58   30   31 1
    59   30   56 1
    60   30   57 1
    61   31   58 1
    62   31   59 1
@<TRIPOS>MOLECULE
ZINC06804941
   47    50     0     0     0
SMALL
USER_CHARGES
N-(3-methoxypropyl)-phenylsulfonyl-BLAHamine
@<TRIPOS>ATOM
      1 C1          6.7480    8.9863    1.3757 C.3       1 <0>         0.0313
      2 O1          6.8305    8.3545    0.0967 O.3       1 <0>        -0.3932
      3 C2          6.1528    7.0985    0.0241 C.3       1 <0>         0.0636
      4 C3          6.3066    6.5166   -1.3825 C.3       1 <0>        -0.1342
      5 C4          5.5811    5.1718   -1.4603 C.3       1 <0>         0.1181
      6 N1          5.7284    4.6146   -2.8071 N.pl3     1 <0>        -0.6741
      7 C5          5.1541    3.3986   -3.1175 C.2       1 <0>         0.5002
      8 C6          5.2957    2.8295   -4.4656 C.ar      1 <0>        -0.1469
      9 C7          6.0059    3.4890   -5.4688 C.ar      1 <0>        -0.0564
     10 C8          6.1101    2.9150   -6.7167 C.ar      1 <0>        -0.1174
     11 C9          5.5150    1.6892   -6.9789 C.ar      1 <0>        -0.0566
     12 C10         4.8093    1.0257   -5.9969 C.ar      1 <0>        -0.1162
     13 C11         4.6929    1.5872   -4.7335 C.ar      1 <0>         0.1946
     14 N2          3.9955    0.9597   -3.7171 N.pl3     1 <0>        -0.3545
     15 C12         3.9011    1.5449   -2.4815 C.2       1 <0>         0.3893
     16 N3          4.4724    2.7320   -2.2110 N.2       1 <0>        -0.5373
     17 C13         3.1516    0.6773   -1.7070 C.2       1 <0>        -0.6052
     18 N4          2.8233   -0.3742   -2.4483 N.2       1 <0>        -0.1113
     19 N5          3.2931   -0.2490   -3.6399 N.2       1 <0>        -0.0652
     20 S1          2.7127    0.9231   -0.0184 S.o2      1 <0>         2.6258
     21 O2          3.6803    1.8089    0.5279 O.2       1 <0>        -0.9136
     22 O3          2.4643   -0.3648    0.5283 O.2       1 <0>        -0.9227
     23 C14         1.1750    1.7832    0.0004 C.ar      1 <0>        -0.6573
     24 C15        -0.0126    1.0758    0.0080 C.ar      1 <0>        -0.0171
     25 C16        -1.2190    1.7507    0.0173 C.ar      1 <0>        -0.1407
     26 C17        -1.2377    3.1328    0.0290 C.ar      1 <0>        -0.0632
     27 C18        -0.0501    3.8402    0.0223 C.ar      1 <0>        -0.1436
     28 C19         1.1563    3.1654    0.0081 C.ar      1 <0>        -0.0181
     29 H1          5.7026    9.1702    1.6234 H         1 <0>         0.0435
     30 H2          7.1917    8.3374    2.1308 H         1 <0>         0.0442
     31 H3          7.2870    9.9334    1.3486 H         1 <0>         0.0881
     32 H4          5.0950    7.2432    0.2437 H         1 <0>         0.0558
     33 H5          6.5841    6.4104    0.7511 H         1 <0>         0.0576
     34 H6          7.3644    6.3719   -1.6022 H         1 <0>         0.0813
     35 H7          5.8754    7.2047   -2.1096 H         1 <0>         0.0803
     36 H8          4.5233    5.3165   -1.2406 H         1 <0>         0.0841
     37 H9          6.0123    4.4837   -0.7332 H         1 <0>         0.0897
     38 H10         6.2295    5.1003   -3.4808 H         1 <0>         0.4185
     39 H11         6.4705    4.4432   -5.2688 H         1 <0>         0.1442
     40 H12         6.6590    3.4223   -7.4962 H         1 <0>         0.1460
     41 H13         5.6050    1.2505   -7.9617 H         1 <0>         0.1481
     42 H14         4.3497    0.0720   -6.2104 H         1 <0>         0.1529
     43 H15         0.0021   -0.0041    0.0020 H         1 <0>         0.1454
     44 H16        -2.1469    1.1980    0.0188 H         1 <0>         0.1351
     45 H17        -2.1802    3.6600    0.0398 H         1 <0>         0.1314
     46 H18        -0.0647    4.9201    0.0280 H         1 <0>         0.1326
     47 H19         2.0841    3.7181    0.0025 H         1 <0>         0.1429
@<TRIPOS>BOND
     1    1    2 1
     2    1   29 1
     3    1   30 1
     4    1   31 1
     5    2    3 1
     6    3    4 1
     7    3   32 1
     8    3   33 1
     9    4    5 1
    10    4   34 1
    11    4   35 1
    12    5    6 1
    13    5   36 1
    14    5   37 1
    15    6    7 1
    16    6   38 1
    17    7   16 2
    18    7    8 1
    19    8   13 ar
    20    8    9 ar
    21    9   10 ar
    22    9   39 1
    23   10   11 ar
    24   10   40 1
    25   11   12 ar
    26   11   41 1
    27   12   13 ar
    28   12   42 1
    29   13   14 1
    30   14   19 1
    31   14   15 1
    32   15   16 1
    33   15   17 2
    34   17   18 1
    35   17   20 1
    36   18   19 2
    37   20   21 2
    38   20   22 2
    39   20   23 1
    40   23   28 ar
    41   23   24 ar
    42   24   25 ar
    43   24   43 1
    44   25   26 ar
    45   25   44 1
    46   26   27 ar
    47   26   45 1
    48   27   28 ar
    49   27   46 1
    50   28   47 1
@<TRIPOS>MOLECULE
ZINC15920611
   49    52     0     0     0
SMALL
USER_CHARGES
(4S)-5-(3-methoxypropyl)-4-(4-nitrophenyl)-3-phenyl-1,4-dihydropyrrolo[4,3-d]pyrazol-6-one
@<TRIPOS>ATOM
      1 C1          1.1829   -4.1952    6.6913 C.3       1 <0>         0.0310
      2 O1          1.1316   -4.3364    5.2703 O.3       1 <0>        -0.3911
      3 C2          1.8090   -3.2990    4.5583 C.3       1 <0>         0.0637
      4 C3          1.6897   -3.5510    3.0539 C.3       1 <0>        -0.1395
      5 C4          2.4150   -2.4402    2.2916 C.3       1 <0>         0.1405
      6 N1          2.3007   -2.6815    0.8512 N.am      1 <0>        -0.5975
      7 C5          1.2289   -2.1857   -0.0219 C.3       1 <0>         0.2469
      8 H1          0.2658   -2.5754    0.3080 H         1 <0>         0.1205
      9 C6          1.5483   -2.6915   -1.4020 C.2       1 <0>        -0.1794
     10 C7          1.1812   -2.7508   -2.7505 C.2       1 <0>         0.1189
     11 N2          2.0917   -3.4705   -3.3760 N.2       1 <0>        -0.2394
     12 N3          2.9974   -3.8711   -2.5564 N.pl3     1 <0>        -0.3327
     13 H2          3.7884   -4.4309   -2.8033 H         1 <0>         0.4630
     14 C8          2.7187   -3.4184   -1.2981 C.2       1 <0>        -0.0541
     15 C9          3.1596   -3.3952    0.1011 C.2       1 <0>         0.6000
     16 O2          4.1600   -3.9434    0.5230 O.2       1 <0>        -0.5066
     17 C10        -0.0144   -2.1201   -3.3643 C.ar      1 <0>        -0.0167
     18 C11        -1.2075   -2.0411   -2.6496 C.ar      1 <0>        -0.0978
     19 C12        -2.3146   -1.4489   -3.2231 C.ar      1 <0>        -0.1176
     20 C13        -2.2439   -0.9443   -4.5090 C.ar      1 <0>        -0.1085
     21 C14        -1.0632   -1.0249   -5.2250 C.ar      1 <0>        -0.1177
     22 C15         0.0513   -1.6104   -4.6591 C.ar      1 <0>        -0.0904
     23 C16         1.2084   -0.6789   -0.0136 C.ar      1 <0>        -0.0438
     24 C17         0.0021   -0.0041    0.0020 C.ar      1 <0>        -0.0971
     25 C18        -0.0167    1.3781    0.0096 C.ar      1 <0>        -0.0486
     26 C19         1.1709    2.0855    0.0021 C.ar      1 <0>        -0.0374
     27 C20         2.3773    1.4107   -0.0136 C.ar      1 <0>        -0.0514
     28 C21         2.3960    0.0285   -0.0212 C.ar      1 <0>        -0.0964
     29 N4          1.1509    3.5656    0.0098 N.pl3     1 <0>         0.0253
     30 O3          0.0879    4.1601    0.0228 O.2       1 <0>        -0.1536
     31 O4          2.1973    4.1889    0.0031 O.3       1 <0>        -0.1567
     32 H3          2.2220   -4.2051    7.0202 H         1 <0>         0.0431
     33 H4          0.7195   -3.2517    6.9797 H         1 <0>         0.0428
     34 H5          0.6462   -5.0212    7.1581 H         1 <0>         0.0883
     35 H6          2.8612   -3.2902    4.8429 H         1 <0>         0.0537
     36 H7          1.3586   -2.3369    4.8024 H         1 <0>         0.0523
     37 H8          0.6375   -3.5597    2.7693 H         1 <0>         0.0779
     38 H9          2.1401   -4.5131    2.8098 H         1 <0>         0.0804
     39 H10         3.4672   -2.4315    2.5762 H         1 <0>         0.0968
     40 H11         1.9646   -1.4781    2.5357 H         1 <0>         0.0908
     41 H12        -1.2651   -2.4387   -1.6472 H         1 <0>         0.1226
     42 H13        -3.2390   -1.3834   -2.6684 H         1 <0>         0.1285
     43 H14        -3.1138   -0.4861   -4.9558 H         1 <0>         0.1259
     44 H15        -1.0134   -0.6294   -6.2287 H         1 <0>         0.1272
     45 H16         0.9726   -1.6734   -5.2192 H         1 <0>         0.1265
     46 H17        -0.9258   -0.5567    0.0079 H         1 <0>         0.1517
     47 H18        -0.9592    1.9054    0.0170 H         1 <0>         0.1584
     48 H19         3.3052    1.9634   -0.0192 H         1 <0>         0.1558
     49 H20         3.3385   -0.4987   -0.0327 H         1 <0>         0.1415
@<TRIPOS>BOND
     1    1    2 1
     2    1   32 1
     3    1   33 1
     4    1   34 1
     5    2    3 1
     6    3    4 1
     7    3   35 1
     8    3   36 1
     9    4    5 1
    10    4   37 1
    11    4   38 1
    12    5    6 1
    13    5   39 1
    14    5   40 1
    15    6   15 am
    16    6    7 1
    17    7    8 1
    18    7    9 1
    19    7   23 1
    20    9   14 2
    21    9   10 1
    22   10   11 2
    23   10   17 1
    24   11   12 1
    25   12   13 1
    26   12   14 1
    27   14   15 1
    28   15   16 2
    29   17   22 ar
    30   17   18 ar
    31   18   19 ar
    32   18   41 1
    33   19   20 ar
    34   19   42 1
    35   20   21 ar
    36   20   43 1
    37   21   22 ar
    38   21   44 1
    39   22   45 1
    40   23   28 ar
    41   23   24 ar
    42   24   25 ar
    43   24   46 1
    44   25   26 ar
    45   25   47 1
    46   26   27 ar
    47   26   29 1
    48   27   28 ar
    49   27   48 1
    50   28   49 1
    51   29   30 2
    52   29   31 1
@<TRIPOS>MOLECULE
ZINC26143628
   56    59     0     0     0
SMALL
USER_CHARGES
N-[3-[3-[(1S)-1-(3-tert-butyl-1,2,4-oxadiazol-5-yl)ethyl]sulfanyl-5-cyclopropyl-1,2,4-triazol-4-yl]phenyl]acetamide
@<TRIPOS>ATOM
      1 C1         -7.3446    4.9352   -2.3733 C.3       1 <0>        -0.1574
      2 C2         -7.1949    3.6183   -3.1376 C.3       1 <0>         0.0049
      3 H1         -8.2110    3.1995   -3.1851 H         1 <0>         0.1523
      4 C3         -6.8554    3.9086   -4.5769 C.2       1 <0>         0.1855
      5 N1         -7.6639    3.8122   -5.6048 N.2       1 <0>        -0.4569
      6 C4         -6.9317    4.1668   -6.6758 C.2       1 <0>         0.1856
      7 N2         -5.7374    4.4554   -6.2525 N.2       1 <0>        -0.3727
      8 O1         -5.6743    4.3190   -5.0488 O.3       1 <0>         0.0849
      9 C5         -7.4087    4.2202   -8.1043 C.3       1 <0>         0.0240
     10 C6         -8.5685    5.2115   -8.2180 C.3       1 <0>        -0.1414
     11 C7         -6.2606    4.6725   -9.0088 C.3       1 <0>        -0.1428
     12 C8         -7.8813    2.8306   -8.5364 C.3       1 <0>        -0.1414
     13 S1         -5.8709    2.6350   -2.3919 S.3       1 <0>         0.0696
     14 C9         -6.5778    2.3206   -0.8088 C.2       1 <0>         0.1529
     15 N3         -7.7497    2.7303   -0.3815 N.2       1 <0>        -0.2792
     16 N4         -7.9455    2.3198    0.8205 N.2       1 <0>        -0.2845
     17 C10        -6.9225    1.6238    1.2293 C.2       1 <0>         0.2126
     18 N5         -6.0097    1.6034    0.2082 N.pl3     1 <0>        -0.4156
     19 C11        -4.7566    0.9736    0.2040 C.ar      1 <0>         0.1199
     20 C12        -4.6738   -0.4100    0.2916 C.ar      1 <0>        -0.1216
     21 C13        -3.4400   -1.0314    0.2876 C.ar      1 <0>        -0.0826
     22 C14        -2.2848   -0.2794    0.1916 C.ar      1 <0>        -0.1284
     23 C15        -2.3609    1.1051    0.1096 C.ar      1 <0>         0.1673
     24 C16        -3.5991    1.7318    0.1129 C.ar      1 <0>        -0.1051
     25 N6         -1.1906    1.8666    0.0178 N.am      1 <0>        -0.6885
     26 C17        -1.1254    3.0759    0.6093 C.2       1 <0>         0.5128
     27 O2         -2.1071    3.5406    1.1492 O.2       1 <0>        -0.5256
     28 C18         0.1688    3.8480    0.6052 C.3       1 <0>        -0.1758
     29 C19        -6.7705    0.9660    2.5766 C.3       1 <0>        -0.1744
     30 C20        -7.9955    0.9414    3.4929 C.3       1 <0>        -0.0942
     31 C21        -6.8190    1.8672    3.8121 C.3       1 <0>        -0.0991
     32 H2         -7.5924    4.7233   -1.3227 H         1 <0>         0.1003
     33 H3         -8.1493    5.5327   -2.8265 H         1 <0>         0.0793
     34 H4         -6.3997    5.4964   -2.4212 H         1 <0>         0.0730
     35 H5         -8.9166    5.2504   -9.2607 H         1 <0>         0.0734
     36 H6         -8.2287    6.2105   -7.9073 H         1 <0>         0.0575
     37 H7         -9.3939    4.8862   -7.5677 H         1 <0>         0.0687
     38 H8         -6.6088    4.7115  -10.0515 H         1 <0>         0.0725
     39 H9         -5.4268    3.9597   -8.9271 H         1 <0>         0.0622
     40 H10        -5.9208    5.6715   -8.6981 H         1 <0>         0.0624
     41 H11        -8.2295    2.8695   -9.5791 H         1 <0>         0.0733
     42 H12        -8.7067    2.5054   -7.8861 H         1 <0>         0.0686
     43 H13        -7.0474    2.1179   -8.4546 H         1 <0>         0.0572
     44 H14        -5.5751   -1.0008    0.3626 H         1 <0>         0.1327
     45 H15        -3.3784   -2.1076    0.3551 H         1 <0>         0.1423
     46 H16        -1.3218   -0.7682    0.1846 H         1 <0>         0.1382
     47 H17        -3.6611    2.8079    0.0451 H         1 <0>         0.1499
     48 H18        -0.3238    1.4783   -0.5371 H         1 <0>         0.4416
     49 H19         0.0273    4.8036    1.1314 H         1 <0>         0.0987
     50 H20         0.4761    4.0430   -0.4328 H         1 <0>         0.0948
     51 H21         0.9476    3.2610    1.1140 H         1 <0>         0.0946
     52 H22        -6.0716    0.2137    2.1822 H         1 <0>         0.1274
     53 H23        -8.8887    1.2288    2.9187 H         1 <0>         0.1175
     54 H24        -8.1304   -0.0725    3.8977 H         1 <0>         0.1125
     55 H25        -5.9817    1.6183    4.4806 H         1 <0>         0.1115
     56 H26        -6.7400    2.9195    3.5017 H         1 <0>         0.1046
@<TRIPOS>BOND
     1    1    2 1
     2    1   32 1
     3    1   33 1
     4    1   34 1
     5    2    3 1
     6    2    4 1
     7    2   13 1
     8    4    8 1
     9    4    5 2
    10    5    6 1
    11    6    7 2
    12    6    9 1
    13    7    8 1
    14    9   10 1
    15    9   11 1
    16    9   12 1
    17   10   35 1
    18   10   36 1
    19   10   37 1
    20   11   38 1
    21   11   39 1
    22   11   40 1
    23   12   41 1
    24   12   42 1
    25   12   43 1
    26   13   14 1
    27   14   18 1
    28   14   15 2
    29   15   16 1
    30   16   17 2
    31   17   18 1
    32   17   29 1
    33   18   19 1
    34   19   24 ar
    35   19   20 ar
    36   20   21 ar
    37   20   44 1
    38   21   22 ar
    39   21   45 1
    40   22   23 ar
    41   22   46 1
    42   23   24 ar
    43   23   25 1
    44   24   47 1
    45   25   26 am
    46   25   48 1
    47   26   27 2
    48   26   28 1
    49   28   49 1
    50   28   50 1
    51   28   51 1
    52   29   31 1
    53   29   30 1
    54   29   52 1
    55   30   31 1
    56   30   53 1
    57   30   54 1
    58   31   55 1
    59   31   56 1
@<TRIPOS>MOLECULE
ZINC39561342
   54    56     0     0     0
SMALL
USER_CHARGES

@<TRIPOS>ATOM
      1 C1         -0.0187    1.5258    0.0104 C.3       1 <0>        -0.1477
      2 C2          0.0021   -0.0041    0.0020 C.3       1 <0>        -0.1218
      3 H1         -1.0205   -0.3814    0.0098 H         1 <0>         0.1307
      4 C3          0.7074   -0.4901   -1.2379 C.2       1 <0>         0.5430
      5 O1          1.8643   -0.8489   -1.1761 O.2       1 <0>        -0.5059
      6 N1          0.0527   -0.5260   -2.4153 N.am      1 <0>        -0.7118
      7 C4          0.7384   -0.9985   -3.6207 C.3       1 <0>         0.2841
      8 C5          1.2018   -2.4415   -3.4113 C.3       1 <0>        -0.1695
      9 C6          1.9054   -0.1423   -3.8887 C.1       1 <0>         0.2023
     10 N2          2.8060    0.5184   -4.0956 N.1       1 <0>        -0.4050
     11 C7         -0.2219   -0.9388   -4.8103 C.3       1 <0>        -0.0937
     12 C8         -0.5878    0.5188   -5.0977 C.3       1 <0>        -0.1586
     13 C9          0.4526   -1.5476   -6.0412 C.3       1 <0>        -0.1546
     14 S1          0.8794   -0.6050    1.4716 S.3       1 <0>         0.0936
     15 C10        -0.1356   -0.0870    2.8155 C.2       1 <0>         0.2017
     16 N3         -1.2631    0.5744    2.7193 N.2       1 <0>        -0.2815
     17 N4         -1.7520    0.7889    4.0134 N.2       1 <0>        -0.3073
     18 C11        -0.9069    0.2511    4.8642 C.2       1 <0>         0.4628
     19 N5          0.1119   -0.3096    4.1433 N.pl3     1 <0>        -0.4415
     20 C12         1.1600   -0.9628    4.7885 C.ar      1 <0>         0.1652
     21 C13         2.1994   -1.5307    4.0675 C.ar      1 <0>        -0.1349
     22 C14         3.2263   -2.1720    4.7316 C.ar      1 <0>        -0.0489
     23 C15         3.2282   -2.2543    6.1151 C.ar      1 <0>        -0.1282
     24 C16         2.2026   -1.6952    6.8481 C.ar      1 <0>        -0.0216
     25 C17         1.1607   -1.0448    6.1891 C.ar      1 <0>        -0.1604
     26 C18         0.0461   -0.4337    6.9361 C.2       1 <0>         0.5701
     27 O2          0.0135   -0.4850    8.1510 O.2       1 <0>        -0.4843
     28 N6         -0.9318    0.1915    6.2493 N.am      1 <0>        -0.5081
     29 C19        -2.0472    0.8016    6.9772 C.3       1 <0>         0.1407
     30 C20        -3.1435   -0.2159    7.1611 C.2       1 <0>        -0.1872
     31 C21        -3.5974   -0.4801    8.3613 C.2       1 <0>        -0.1500
     32 H2          1.0039    1.9031    0.0027 H         1 <0>         0.0743
     33 H3         -0.5459    1.8868   -0.8726 H         1 <0>         0.0767
     34 H4         -0.5289    1.8773    0.9072 H         1 <0>         0.0888
     35 H5         -0.8726   -0.2391   -2.4647 H         1 <0>         0.4136
     36 H6          0.3377   -3.0755   -3.2128 H         1 <0>         0.0815
     37 H7          1.7120   -2.7930   -4.3080 H         1 <0>         0.0816
     38 H8          1.8860   -2.4840   -2.5638 H         1 <0>         0.0873
     39 H9         -1.1259   -1.5009   -4.5760 H         1 <0>         0.1026
     40 H10         0.3163    1.0808   -5.3320 H         1 <0>         0.0578
     41 H11        -1.2719    0.5613   -5.9452 H         1 <0>         0.0715
     42 H12        -1.0683    0.9525   -4.2208 H         1 <0>         0.0602
     43 H13         0.7132   -2.5860   -5.8364 H         1 <0>         0.0702
     44 H14        -0.2316   -1.5051   -6.8887 H         1 <0>         0.0714
     45 H15         1.3566   -0.9855   -6.2755 H         1 <0>         0.0577
     46 H16         2.2056   -1.4719    2.9891 H         1 <0>         0.1441
     47 H17         4.0348   -2.6136    4.1680 H         1 <0>         0.1480
     48 H18         4.0371   -2.7594    6.6219 H         1 <0>         0.1468
     49 H19         2.2066   -1.7609    7.9261 H         1 <0>         0.1538
     50 H20        -1.7011    1.1431    7.9527 H         1 <0>         0.1087
     51 H21        -2.4304    1.6500    6.4102 H         1 <0>         0.1087
     52 H22        -3.5550   -0.7273    6.3035 H         1 <0>         0.1140
     53 H23        -3.1859    0.0314    9.2189 H         1 <0>         0.1037
     54 H24        -4.3830   -1.2093    8.4931 H         1 <0>         0.1053
@<TRIPOS>BOND
     1    1    2 1
     2    1   32 1
     3    1   33 1
     4    1   34 1
     5    2    3 1
     6    2    4 1
     7    2   14 1
     8    4    5 2
     9    4    6 am
    10    6    7 1
    11    6   35 1
    12    7    8 1
    13    7    9 1
    14    7   11 1
    15    8   36 1
    16    8   37 1
    17    8   38 1
    18    9   10 3
    19   11   12 1
    20   11   13 1
    21   11   39 1
    22   12   40 1
    23   12   41 1
    24   12   42 1
    25   13   43 1
    26   13   44 1
    27   13   45 1
    28   14   15 1
    29   15   19 1
    30   15   16 2
    31   16   17 1
    32   17   18 2
    33   18   28 1
    34   18   19 1
    35   19   20 1
    36   20   25 ar
    37   20   21 ar
    38   21   22 ar
    39   21   46 1
    40   22   23 ar
    41   22   47 1
    42   23   24 ar
    43   23   48 1
    44   24   25 ar
    45   24   49 1
    46   25   26 1
    47   26   27 2
    48   26   28 am
    49   28   29 1
    50   29   30 1
    51   29   50 1
    52   29   51 1
    53   30   31 2
    54   30   52 1
    55   31   53 1
    56   31   54 1
@<TRIPOS>MOLECULE
ZINC45308918
   59    62     0     0     0
SMALL
USER_CHARGES

@<TRIPOS>ATOM
      1 C1         -0.6010    2.2445    0.0141 C.3       1 <0>        -0.1718
      2 C2         -0.3158    0.7451    0.1209 C.3       1 <0>         0.1058
      3 N1          0.5018    0.3211   -1.0184 N.am      1 <0>        -0.6229
      4 C3          1.9634    0.3567   -0.9246 C.3       1 <0>         0.1773
      5 C4          2.4651   -0.9626   -0.3966 C.ar      1 <0>        -0.0987
      6 C5          2.6073   -1.1512    0.9656 C.ar      1 <0>        -0.0962
      7 C6          3.0667   -2.3597    1.4549 C.ar      1 <0>        -0.1043
      8 C7          3.3864   -3.3854    0.5801 C.ar      1 <0>         0.0345
      9 C8          3.2432   -3.1954   -0.7921 C.ar      1 <0>         0.0287
     10 C9          2.7767   -1.9835   -1.2750 C.ar      1 <0>        -0.0733
     11 O1          3.6187   -4.3408   -1.4326 O.3       1 <0>        -0.3081
     12 C10         4.3786   -5.0903   -0.4662 C.3       1 <0>         0.2128
     13 O2          3.8515   -4.6498    0.7993 O.3       1 <0>        -0.3098
     14 C11        -0.0906   -0.1016   -2.1527 C.2       1 <0>         0.7078
     15 O3          0.5880   -0.4535   -3.0983 O.2       1 <0>        -0.5896
     16 N2         -1.4352   -0.1343   -2.2390 N.am      1 <0>        -0.7308
     17 C12        -2.0792   -0.5939   -3.4720 C.3       1 <0>         0.1459
     18 C13        -3.5988   -0.5560   -3.2985 C.3       1 <0>         0.1538
     19 H1         -4.0757   -0.9939   -4.1754 H         1 <0>         0.0902
     20 C14        -4.0510    0.8730   -3.1417 C.2       1 <0>        -0.0090
     21 C15        -4.5912    1.6376   -4.1076 C.2       1 <0>        -0.1965
     22 C16        -4.8645    2.8977   -3.5276 C.2       1 <0>        -0.2115
     23 C17        -4.4751    2.8277   -2.2420 C.2       1 <0>        -0.0090
     24 O4         -3.9885    1.5971   -2.0123 O.3       1 <0>        -0.1590
     25 C18        -4.5733    3.9397   -1.2296 C.3       1 <0>        -0.0750
     26 N3         -3.9743   -1.3225   -2.1029 N.3       1 <0>        -0.5285
     27 C19        -3.5230   -2.7176   -2.2081 C.3       1 <0>         0.0134
     28 C20        -3.8812   -3.4629   -0.9197 C.3       1 <0>         0.0663
     29 O5         -5.2902   -3.3651   -0.6944 O.3       1 <0>        -0.3833
     30 C21        -5.7640   -2.0201   -0.5861 C.3       1 <0>         0.0657
     31 C22        -5.4248   -1.2603   -1.8712 C.3       1 <0>         0.0196
     32 H2          0.3400    2.7945    0.0175 H         1 <0>         0.0605
     33 H3         -1.1370    2.4472   -0.9132 H         1 <0>         0.0575
     34 H4         -1.2094    2.5599    0.8617 H         1 <0>         0.0677
     35 H5          0.2201    0.5424    1.0482 H         1 <0>         0.0818
     36 H6         -1.2569    0.1951    0.1175 H         1 <0>         0.0746
     37 H7          2.3866    0.5372   -1.9128 H         1 <0>         0.0962
     38 H8          2.2647    1.1569   -0.2486 H         1 <0>         0.0905
     39 H9          2.3593   -0.3525    1.6490 H         1 <0>         0.1362
     40 H10         3.1768   -2.5042    2.5195 H         1 <0>         0.1355
     41 H11         2.6604   -1.8349   -2.3384 H         1 <0>         0.1420
     42 H12         4.2160   -6.1601   -0.5973 H         1 <0>         0.1321
     43 H13         5.4391   -4.8507   -0.5436 H         1 <0>         0.0851
     44 H14        -1.9766    0.1464   -1.4846 H         1 <0>         0.4066
     45 H15        -1.7913    0.0579   -4.2969 H         1 <0>         0.0772
     46 H16        -1.7635   -1.6145   -3.6882 H         1 <0>         0.0768
     47 H17        -4.7794    1.3453   -5.1301 H         1 <0>         0.1468
     48 H18        -5.3018    3.7525   -4.0220 H         1 <0>         0.1472
     49 H19        -5.5347    3.8824   -0.7191 H         1 <0>         0.0814
     50 H20        -3.7686    3.8399   -0.5011 H         1 <0>         0.0761
     51 H21        -4.4876    4.9009   -1.7362 H         1 <0>         0.0882
     52 H22        -4.0153   -3.1966   -3.0545 H         1 <0>         0.0489
     53 H23        -2.4430   -2.7408   -2.3537 H         1 <0>         0.0930
     54 H24        -3.5998   -4.5115   -1.0155 H         1 <0>         0.1001
     55 H25        -3.3468   -3.0171   -0.0808 H         1 <0>         0.0598
     56 H26        -6.8442   -2.0253   -0.4407 H         1 <0>         0.0992
     57 H27        -5.2842   -1.5324    0.2624 H         1 <0>         0.0603
     58 H28        -5.7331   -0.2196   -1.7709 H         1 <0>         0.0875
     59 H29        -5.9475   -1.7159   -2.7122 H         1 <0>         0.0468
@<TRIPOS>BOND
     1    1    2 1
     2    1   32 1
     3    1   33 1
     4    1   34 1
     5    2    3 1
     6    2   35 1
     7    2   36 1
     8    3    4 1
     9    3   14 am
    10    4    5 1
    11    4   37 1
    12    4   38 1
    13    5   10 ar
    14    5    6 ar
    15    6    7 ar
    16    6   39 1
    17    7    8 ar
    18    7   40 1
    19    8   13 1
    20    8    9 ar
    21    9   10 ar
    22    9   11 1
    23   10   41 1
    24   11   12 1
    25   12   13 1
    26   12   42 1
    27   12   43 1
    28   14   15 2
    29   14   16 am
    30   16   17 1
    31   16   44 1
    32   17   18 1
    33   17   45 1
    34   17   46 1
    35   18   19 1
    36   18   20 1
    37   18   26 1
    38   20   24 1
    39   20   21 2
    40   21   22 1
    41   21   47 1
    42   22   23 2
    43   22   48 1
    44   23   24 1
    45   23   25 1
    46   25   49 1
    47   25   50 1
    48   25   51 1
    49   26   31 1
    50   26   27 1
    51   27   28 1
    52   27   52 1
    53   27   53 1
    54   28   29 1
    55   28   54 1
    56   28   55 1
    57   29   30 1
    58   30   31 1
    59   30   56 1
    60   30   57 1
    61   31   58 1
    62   31   59 1
@<TRIPOS>MOLECULE
ZINC09388869
   51    53     0     0     0
SMALL
USER_CHARGES
ethyl 5-acetyl-4-methyl-2-[2-[5-(p-tolyl)tetrazol-2-yl]acetyl]amino-thiophene-3-carboxylate
@<TRIPOS>ATOM
      1 C1          3.8287    6.4841    2.5064 C.3       1 <0>        -0.1541
      2 C2          3.3899    6.0909    1.0944 C.3       1 <0>         0.0579
      3 O1          2.3332    5.0983    1.1747 O.3       1 <0>        -0.3487
      4 C3          1.8313    4.6428    0.0091 C.2       1 <0>         0.5298
      5 O2          2.2654    5.0641   -1.0456 O.2       1 <0>        -0.4862
      6 C4          0.7609    3.6384    0.0136 C.2       1 <0>        -0.2170
      7 C5          1.0513    2.2855    0.0043 C.2       1 <0>         0.0332
      8 C6         -0.0170    1.4060    0.0098 C.2       1 <0>        -0.3286
      9 S1         -1.4238    2.5012    0.0212 S.3       1 <0>         0.3224
     10 C7         -0.5867    4.0187    0.0277 C.2       1 <0>         0.0969
     11 N1         -1.1187    5.2918    0.0395 N.am      1 <0>        -0.6065
     12 C8         -2.4554    5.4635    0.0524 C.2       1 <0>         0.5001
     13 O3         -3.1906    4.4992    0.0538 O.2       1 <0>        -0.4673
     14 C9         -3.0365    6.8539    0.0652 C.3       1 <0>         0.1234
     15 N2         -4.4991    6.7719    0.0779 N.pl3     1 <0>        -0.1388
     16 N3         -5.2531    6.7410   -0.9668 N.2       1 <0>        -0.2914
     17 C10        -6.5042    6.6638   -0.5590 C.2       1 <0>         0.2254
     18 N4         -6.4718    6.6579    0.7810 N.2       1 <0>        -0.2625
     19 N5         -5.2331    6.7249    1.1344 N.2       1 <0>        -0.0407
     20 C11        -7.7142    6.6018   -1.4171 C.ar      1 <0>        -0.0269
     21 C12        -7.5892    6.6229   -2.8043 C.ar      1 <0>        -0.0742
     22 C13        -8.7171    6.5596   -3.5974 C.ar      1 <0>        -0.1243
     23 C14        -9.9705    6.4864   -3.0169 C.ar      1 <0>        -0.0634
     24 C15       -10.1005    6.4704   -1.6400 C.ar      1 <0>        -0.1231
     25 C16        -8.9789    6.5279   -0.8377 C.ar      1 <0>        -0.0704
     26 C17       -11.1987    6.4243   -3.8879 C.3       1 <0>        -0.1206
     27 C18         0.0021   -0.0041    0.0020 C.2       1 <0>         0.4354
     28 O4          1.0622   -0.5971   -0.0113 O.2       1 <0>        -0.4511
     29 C19        -1.2926   -0.7753    0.0102 C.3       1 <0>        -0.1943
     30 C20         2.4743    1.7896   -0.0107 C.3       1 <0>        -0.1187
     31 H1          4.6220    7.2292    2.4461 H         1 <0>         0.0836
     32 H2          2.9795    6.9005    3.0481 H         1 <0>         0.0675
     33 H3          4.1974    5.6026    3.0309 H         1 <0>         0.0691
     34 H4          4.2391    5.6745    0.5527 H         1 <0>         0.0742
     35 H5          3.0212    6.9724    0.5698 H         1 <0>         0.0724
     36 H6         -0.5306    6.0632    0.0384 H         1 <0>         0.4277
     37 H7         -2.6945    7.3825    0.9551 H         1 <0>         0.1615
     38 H8         -2.7105    7.3922   -0.8248 H         1 <0>         0.1593
     39 H9         -6.6113    6.6849   -3.2584 H         1 <0>         0.1319
     40 H10        -8.6211    6.5718   -4.6730 H         1 <0>         0.1304
     41 H11       -11.0815    6.4131   -1.1919 H         1 <0>         0.1318
     42 H12        -9.0815    6.5160    0.2374 H         1 <0>         0.1364
     43 H13       -11.5514    7.4355   -4.0913 H         1 <0>         0.0753
     44 H14       -10.9533    5.9293   -4.8274 H         1 <0>         0.0697
     45 H15       -11.9799    5.8634   -3.3749 H         1 <0>         0.0702
     46 H16        -1.8279   -0.5365   -0.8000 H         1 <0>         0.0836
     47 H17        -1.0789   -1.8441    0.0025 H         1 <0>         0.0925
     48 H18        -1.8592   -0.5245    0.9070 H         1 <0>         0.0938
     49 H19         2.8084    1.6752   -1.0419 H         1 <0>         0.0865
     50 H20         3.1148    2.5079    0.5012 H         1 <0>         0.0652
     51 H21         2.5290    0.8271    0.4979 H         1 <0>         0.1012
@<TRIPOS>BOND
     1    1    2 1
     2    1   31 1
     3    1   32 1
     4    1   33 1
     5    2    3 1
     6    2   34 1
     7    2   35 1
     8    3    4 1
     9    4    5 2
    10    4    6 1
    11    6   10 2
    12    6    7 1
    13    7    8 2
    14    7   30 1
    15    8    9 1
    16    8   27 1
    17    9   10 1
    18   10   11 1
    19   11   12 am
    20   11   36 1
    21   12   13 2
    22   12   14 1
    23   14   15 1
    24   14   37 1
    25   14   38 1
    26   15   19 1
    27   15   16 1
    28   16   17 2
    29   17   18 1
    30   17   20 1
    31   18   19 2
    32   20   25 ar
    33   20   21 ar
    34   21   22 ar
    35   21   39 1
    36   22   23 ar
    37   22   40 1
    38   23   24 ar
    39   23   26 1
    40   24   25 ar
    41   24   41 1
    42   25   42 1
    43   26   43 1
    44   26   44 1
    45   26   45 1
    46   27   28 2
    47   27   29 1
    48   29   46 1
    49   29   47 1
    50   29   48 1
    51   30   49 1
    52   30   50 1
    53   30   51 1
@<TRIPOS>MOLECULE
ZINC12535318
   54    57     0     0     0
SMALL
USER_CHARGES
(2S)-1-[2-[[(3S)-1,1-dioxothiolan-3-yl]methyl]benzimidazol-1-yl]-3-(3-nitrophenoxy)propan-2-ol
@<TRIPOS>ATOM
      1 C1         -2.2189   13.2259   -1.5923 C.ar      1 <0>        -0.1274
      2 C2         -2.4740   12.1021   -2.3656 C.ar      1 <0>        -0.0966
      3 C3         -2.5456   10.8547   -1.7832 C.ar      1 <0>        -0.1101
      4 C4         -2.3611   10.7238   -0.4134 C.ar      1 <0>         0.0607
      5 C5         -2.1029   11.8618    0.3691 C.ar      1 <0>         0.0444
      6 C6         -2.0352   13.1162   -0.2431 C.ar      1 <0>        -0.0613
      7 N1         -1.9689   11.4375    1.6520 N.2       1 <0>        -0.4770
      8 C7         -2.1293   10.1474    1.7050 C.2       1 <0>         0.2799
      9 N2         -2.3684    9.6545    0.4598 N.pl3     1 <0>        -0.4814
     10 C8         -2.5975    8.2502    0.1111 C.3       1 <0>         0.0792
     11 C9         -1.2529    7.5500   -0.0953 C.3       1 <0>         0.0935
     12 H1         -0.6419    7.6657    0.7999 H         1 <0>         0.1186
     13 C10        -1.4885    6.0622   -0.3633 C.3       1 <0>         0.0253
     14 O1         -0.2313    5.3872   -0.4405 O.3       1 <0>        -0.2908
     15 C11        -0.2629    4.0491   -0.6756 C.ar      1 <0>         0.1344
     16 C12        -1.4790    3.3991   -0.8295 C.ar      1 <0>        -0.1619
     17 C13        -1.5082    2.0401   -1.0745 C.ar      1 <0>        -0.0735
     18 C14        -0.3271    1.3254   -1.1552 C.ar      1 <0>        -0.0919
     19 C15         0.8859    1.9707   -1.0023 C.ar      1 <0>        -0.0023
     20 C16         0.9207    3.3309   -0.7627 C.ar      1 <0>        -0.0900
     21 N3          2.1483    1.2039   -1.0959 N.pl3     1 <0>         0.0239
     22 O2          2.1183    0.0048   -1.3075 O.2       1 <0>        -0.1484
     23 O3          3.2173    1.7719   -0.9613 O.3       1 <0>        -0.1493
     24 O4         -0.5781    8.1341   -1.2114 O.3       1 <0>        -0.5339
     25 C17        -2.0575    9.3195    2.9621 C.3       1 <0>        -0.0312
     26 C18        -3.4674    9.1179    3.5212 C.3       1 <0>        -0.0953
     27 H2         -4.1136    8.7011    2.7486 H         1 <0>         0.0943
     28 C19        -3.4167    8.1640    4.7262 C.3       1 <0>        -0.1203
     29 C20        -4.7633    8.2045    5.4882 C.3       1 <0>        -0.5808
     30 S1         -5.3765    9.9020    5.1347 S.o2      1 <0>         2.3644
     31 O5         -6.5919    9.8116    4.4041 O.2       1 <0>        -0.9364
     32 O6         -5.3353   10.6670    6.3315 O.2       1 <0>        -0.9344
     33 C21        -4.0401   10.4804    4.0058 C.3       1 <0>        -0.5655
     34 H3         -2.1655   14.1970   -2.0618 H         1 <0>         0.1306
     35 H4         -2.6169   12.2055   -3.4311 H         1 <0>         0.1307
     36 H5         -2.7447    9.9835   -2.3896 H         1 <0>         0.1177
     37 H6         -1.8380   13.9973    0.3494 H         1 <0>         0.1298
     38 H7         -3.1810    8.1946   -0.8079 H         1 <0>         0.1023
     39 H8         -3.1425    7.7598    0.9177 H         1 <0>         0.1064
     40 H9         -2.0233    5.9430   -1.3056 H         1 <0>         0.0761
     41 H10        -2.0804    5.6364    0.4469 H         1 <0>         0.0814
     42 H11        -2.4018    3.9561   -0.7624 H         1 <0>         0.1461
     43 H12        -2.4544    1.5345   -1.1991 H         1 <0>         0.1533
     44 H13        -0.3522    0.2620   -1.3425 H         1 <0>         0.1577
     45 H14         1.8685    3.8347   -0.6437 H         1 <0>         0.1630
     46 H15        -1.0651    8.0678   -2.0441 H         1 <0>         0.3755
     47 H16        -1.6151    8.3498    2.7338 H         1 <0>         0.0919
     48 H17        -1.4436    9.8339    3.7014 H         1 <0>         0.1139
     49 H18        -3.2293    7.1488    4.3764 H         1 <0>         0.0976
     50 H19        -2.6134    8.4698    5.3963 H         1 <0>         0.0947
     51 H20        -5.4516    7.4555    5.0967 H         1 <0>         0.1387
     52 H21        -4.6064    8.0652    6.5579 H         1 <0>         0.1440
     53 H22        -3.2878   11.0541    4.5471 H         1 <0>         0.1487
     54 H23        -4.4479   11.0549    3.1741 H         1 <0>         0.1405
@<TRIPOS>BOND
     1    1    6 ar
     2    1    2 ar
     3    1   34 1
     4    2    3 ar
     5    2   35 1
     6    3    4 ar
     7    3   36 1
     8    4    9 1
     9    4    5 ar
    10    5    6 ar
    11    5    7 1
    12    6   37 1
    13    7    8 2
    14    8    9 1
    15    8   25 1
    16    9   10 1
    17   10   11 1
    18   10   38 1
    19   10   39 1
    20   11   12 1
    21   11   13 1
    22   11   24 1
    23   13   14 1
    24   13   40 1
    25   13   41 1
    26   14   15 1
    27   15   20 ar
    28   15   16 ar
    29   16   17 ar
    30   16   42 1
    31   17   18 ar
    32   17   43 1
    33   18   19 ar
    34   18   44 1
    35   19   20 ar
    36   19   21 1
    37   20   45 1
    38   21   22 2
    39   21   23 1
    40   24   46 1
    41   25   26 1
    42   25   47 1
    43   25   48 1
    44   26   27 1
    45   26   33 1
    46   26   28 1
    47   28   29 1
    48   28   49 1
    49   28   50 1
    50   29   30 1
    51   29   51 1
    52   29   52 1
    53   30   31 2
    54   30   32 2
    55   30   33 1
    56   33   53 1
    57   33   54 1
@<TRIPOS>MOLECULE
ZINC22524384
   52    54     0     0     0
SMALL
USER_CHARGES
methyl 2,4-dimethyl-5-[2-[2-[(3-methyl-1,2,4-oxadiazol-5-yl)methylsulfanyl]benzoyl]oxyacetyl]-1H-pyrrole-3-carboxylate
@<TRIPOS>ATOM
      1 C1         -3.5690    3.5326  -10.5586 C.3       1 <0>        -0.0946
      2 C2         -4.3619    4.0706   -9.3955 C.2       1 <0>        -0.0028
      3 C3         -5.5268    4.8644   -9.4666 C.2       1 <0>        -0.2221
      4 C4         -5.9172    5.1352   -8.1666 C.2       1 <0>         0.1294
      5 N1         -5.0548    4.5436   -7.3270 N.pl3     1 <0>        -0.5276
      6 H1         -5.1919    4.6398   -6.2398 H         1 <0>         0.4556
      7 C5         -4.0908    3.8793   -8.0578 C.2       1 <0>        -0.0877
      8 C6         -3.0094    3.1365   -7.5265 C.2       1 <0>         0.4227
      9 O1         -2.2209    2.5934   -8.2732 O.2       1 <0>        -0.4236
     10 C7         -2.8367    3.0197   -6.0340 C.3       1 <0>         0.0175
     11 O2         -1.6641    2.2140   -5.7440 O.3       1 <0>        -0.3253
     12 C8         -1.3668    2.0113   -4.4451 C.2       1 <0>         0.5065
     13 O3         -2.0685    2.4949   -3.5786 O.2       1 <0>        -0.4835
     14 C9         -0.1920    1.2042   -4.0760 C.ar      1 <0>        -0.1205
     15 C10         0.6186    0.6461   -5.0691 C.ar      1 <0>        -0.0349
     16 C11         1.7161   -0.1074   -4.7170 C.ar      1 <0>        -0.1374
     17 C12         2.0238   -0.3167   -3.3811 C.ar      1 <0>        -0.0540
     18 C13         1.2380    0.2308   -2.3889 C.ar      1 <0>        -0.1502
     19 C14         0.1221    0.9900   -2.7235 C.ar      1 <0>        -0.0448
     20 S1         -0.8881    1.6854   -1.4584 S.3       1 <0>         0.0473
     21 C15        -0.0127    1.0858    0.0080 C.3       1 <0>        -0.0856
     22 C16        -0.7181    1.5718    1.2479 C.2       1 <0>         0.1942
     23 N2         -1.6800    0.9554    1.8914 N.2       1 <0>        -0.4644
     24 C17        -1.9959    1.7566    2.9244 C.2       1 <0>         0.1722
     25 N3         -1.2243    2.8001    2.8577 N.2       1 <0>        -0.3774
     26 O4         -0.4788    2.7107    1.9050 O.3       1 <0>         0.0868
     27 C18        -3.0512    1.4930    3.9675 C.3       1 <0>        -0.0682
     28 C19        -7.1125    5.9589   -7.7618 C.3       1 <0>        -0.1075
     29 C20        -6.1977    5.3240  -10.6945 C.2       1 <0>         0.5461
     30 O5         -5.8782    6.3808  -11.2023 O.2       1 <0>        -0.4950
     31 O6         -7.1660    4.5727  -11.2550 O.3       1 <0>        -0.3513
     32 C21        -7.7834    5.0879  -12.4640 C.3       1 <0>         0.0292
     33 H2         -4.0352    3.8558  -11.5010 H         1 <0>         0.0638
     34 H3         -3.5539    2.4336  -10.5150 H         1 <0>         0.0844
     35 H4         -2.5391    3.9157  -10.5087 H         1 <0>         0.0835
     36 H5         -2.7091    4.0224   -5.6001 H         1 <0>         0.1058
     37 H6         -3.7266    2.5422   -5.5981 H         1 <0>         0.1060
     38 H7          0.3844    0.8061   -6.1112 H         1 <0>         0.1477
     39 H8          2.3410   -0.5376   -5.4856 H         1 <0>         0.1383
     40 H9          2.8873   -0.9087   -3.1160 H         1 <0>         0.1373
     41 H10         1.4874    0.0667   -1.3510 H         1 <0>         0.1375
     42 H11         0.0022   -0.0141    0.0019 H         1 <0>         0.1368
     43 H12         1.0193    1.4665    0.0002 H         1 <0>         0.1300
     44 H13        -3.0769    2.3286    4.6824 H         1 <0>         0.0899
     45 H14        -2.8143    0.5608    4.5013 H         1 <0>         0.0939
     46 H15        -4.0326    1.3972    3.4801 H         1 <0>         0.0938
     47 H16        -7.1732    6.0023   -6.6643 H         1 <0>         0.0804
     48 H17        -8.0278    5.4980   -8.1617 H         1 <0>         0.0930
     49 H18        -7.0090    6.9775   -8.1639 H         1 <0>         0.0922
     50 H19        -8.5509    4.3816  -12.8134 H         1 <0>         0.1054
     51 H20        -7.0168    5.2114  -13.2432 H         1 <0>         0.0658
     52 H21        -8.2502    6.0610  -12.2513 H         1 <0>         0.0655
@<TRIPOS>BOND
     1    1    2 1
     2    1   33 1
     3    1   34 1
     4    1   35 1
     5    2    7 2
     6    2    3 1
     7    3    4 2
     8    3   29 1
     9    4    5 1
    10    4   28 1
    11    5    6 1
    12    5    7 1
    13    7    8 1
    14    8    9 2
    15    8   10 1
    16   10   11 1
    17   10   36 1
    18   10   37 1
    19   11   12 1
    20   12   13 2
    21   12   14 1
    22   14   19 ar
    23   14   15 ar
    24   15   16 ar
    25   15   38 1
    26   16   17 ar
    27   16   39 1
    28   17   18 ar
    29   17   40 1
    30   18   19 ar
    31   18   41 1
    32   19   20 1
    33   20   21 1
    34   21   22 1
    35   21   42 1
    36   21   43 1
    37   22   26 1
    38   22   23 2
    39   23   24 1
    40   24   25 2
    41   24   27 1
    42   25   26 1
    43   27   44 1
    44   27   45 1
    45   27   46 1
    46   28   47 1
    47   28   48 1
    48   28   49 1
    49   29   30 2
    50   29   31 1
    51   31   32 1
    52   32   50 1
    53   32   51 1
    54   32   52 1
@<TRIPOS>MOLECULE
ZINC19882244
   55    57     0     0     0
SMALL
USER_CHARGES

@<TRIPOS>ATOM
      1 C1         -1.3313    1.5555    0.4980 C.3       1 <0>        -0.1192
      2 C2         -0.9682    0.0963    0.3986 C.ar      1 <0>        -0.0758
      3 C3          0.3536   -0.2947    0.5093 C.ar      1 <0>        -0.1134
      4 C4          0.6899   -1.6311    0.4187 C.ar      1 <0>        -0.1164
      5 C5         -0.3013   -2.5830    0.2160 C.ar      1 <0>         0.1262
      6 C6         -1.6281   -2.1867    0.1052 C.ar      1 <0>        -0.0802
      7 C7         -1.9581   -0.8492    0.2024 C.ar      1 <0>        -0.1063
      8 N1          0.0353   -3.9354    0.1234 N.pl3     1 <0>        -0.9328
      9 C8          0.7019   -4.6027    1.2443 C.3       1 <0>         0.0862
     10 C9         -0.3457   -5.0618    2.2606 C.3       1 <0>         0.0966
     11 H1         -1.0914   -5.6794    1.7599 H         1 <0>         0.1069
     12 C10         0.3351   -5.8766    3.3621 C.3       1 <0>         0.0233
     13 N2         -0.6730   -6.3304    4.3296 N.3       1 <0>        -0.5238
     14 C11        -0.0471   -6.7050    5.6060 C.3       1 <0>         0.0181
     15 C12        -1.1360   -7.1136    6.6016 C.3       1 <0>         0.0633
     16 O1         -1.9089   -8.1800    6.0439 O.3       1 <0>        -0.3854
     17 C13        -2.5333   -7.8493    4.8005 C.3       1 <0>         0.0634
     18 C14        -1.4585   -7.4482    3.7867 C.3       1 <0>         0.0147
     19 O2         -0.9824   -3.9198    2.8372 O.3       1 <0>        -0.5313
     20 S1         -0.3191   -4.7844   -1.2535 S.o2      1 <0>         2.6793
     21 O3         -0.5301   -6.1324   -0.8564 O.2       1 <0>        -0.9362
     22 O4         -1.3024   -4.0332   -1.9521 O.2       1 <0>        -0.9270
     23 C15         1.1287   -4.7760   -2.2578 C.ar      1 <0>        -0.6412
     24 C16         1.3804   -3.7081   -3.0987 C.ar      1 <0>        -0.0122
     25 C17         2.5162   -3.7015   -3.8866 C.ar      1 <0>        -0.0739
     26 C18         3.4005   -4.7627   -3.8334 C.ar      1 <0>         0.0045
     27 C19         3.1492   -5.8302   -2.9918 C.ar      1 <0>        -0.0752
     28 C20         2.0156   -5.8348   -2.2007 C.ar      1 <0>        -0.0208
     29 N3          4.6161   -4.7561   -4.6778 N.pl3     1 <0>         0.0224
     30 O5          4.8357   -3.8226   -5.4140 O.2       1 <0>        -0.1407
     31 O6          5.3896   -5.6841   -4.6312 O.3       1 <0>        -0.1415
     32 H2         -1.5282    1.8108    1.5392 H         1 <0>         0.0737
     33 H3         -0.5057    2.1616    0.1252 H         1 <0>         0.0678
     34 H4         -2.2227    1.7495   -0.0985 H         1 <0>         0.0691
     35 H5          1.1239    0.4458    0.6665 H         1 <0>         0.1266
     36 H6          1.7224   -1.9358    0.5049 H         1 <0>         0.1236
     37 H7         -2.4012   -2.9241   -0.0528 H         1 <0>         0.1282
     38 H8         -2.9899   -0.5408    0.1208 H         1 <0>         0.1293
     39 H9          1.2541   -5.4673    0.8761 H         1 <0>         0.0932
     40 H10         1.3919   -3.9076    1.7227 H         1 <0>         0.0938
     41 H11         0.8304   -6.7415    2.9209 H         1 <0>         0.0499
     42 H12         1.0727   -5.2555    3.8704 H         1 <0>         0.0807
     43 H13         0.6326   -7.5420    5.4462 H         1 <0>         0.0425
     44 H14         0.5081   -5.8549    6.0025 H         1 <0>         0.0860
     45 H15        -0.6734   -7.4466    7.5306 H         1 <0>         0.0984
     46 H16        -1.7843   -6.2607    6.8023 H         1 <0>         0.0612
     47 H17        -3.0812   -8.7144    4.4270 H         1 <0>         0.0992
     48 H18        -3.2222   -7.0178    4.9489 H         1 <0>         0.0619
     49 H19        -1.9336   -7.1406    2.8551 H         1 <0>         0.0884
     50 H20        -0.8013   -8.2970    3.5979 H         1 <0>         0.0443
     51 H21        -0.3694   -3.2872    3.2361 H         1 <0>         0.3689
     52 H22         0.6895   -2.8790   -3.1403 H         1 <0>         0.1638
     53 H23         2.7125   -2.8675   -4.5441 H         1 <0>         0.1664
     54 H24         3.8399   -6.6594   -2.9505 H         1 <0>         0.1662
     55 H25         1.8212   -6.6671   -1.5405 H         1 <0>         0.1653
@<TRIPOS>BOND
     1    1    2 1
     2    1   32 1
     3    1   33 1
     4    1   34 1
     5    2    7 ar
     6    2    3 ar
     7    3    4 ar
     8    3   35 1
     9    4    5 ar
    10    4   36 1
    11    5    6 ar
    12    5    8 1
    13    6    7 ar
    14    6   37 1
    15    7   38 1
    16    8    9 1
    17    8   20 1
    18    9   10 1
    19    9   39 1
    20    9   40 1
    21   10   11 1
    22   10   12 1
    23   10   19 1
    24   12   13 1
    25   12   41 1
    26   12   42 1
    27   13   18 1
    28   13   14 1
    29   14   15 1
    30   14   43 1
    31   14   44 1
    32   15   16 1
    33   15   45 1
    34   15   46 1
    35   16   17 1
    36   17   18 1
    37   17   47 1
    38   17   48 1
    39   18   49 1
    40   18   50 1
    41   19   51 1
    42   20   21 2
    43   20   22 2
    44   20   23 1
    45   23   28 ar
    46   23   24 ar
    47   24   25 ar
    48   24   52 1
    49   25   26 ar
    50   25   53 1
    51   26   27 ar
    52   26   29 1
    53   27   28 ar
    54   27   54 1
    55   28   55 1
    56   29   30 2
    57   29   31 1
@<TRIPOS>MOLECULE
ZINC45400707
   45    47     0     0     0
SMALL
USER_CHARGES

@<TRIPOS>ATOM
      1 C1         -0.0187    1.5258    0.0104 C.3       1 <0>        -0.1538
      2 C2          0.0021   -0.0041    0.0020 C.3       1 <0>         0.0602
      3 O1         -1.3386   -0.4987    0.0122 O.3       1 <0>        -0.3419
      4 C3         -1.4964   -1.8317    0.0065 C.2       1 <0>         0.4872
      5 O2         -0.5283   -2.5546   -0.0066 O.2       1 <0>        -0.4892
      6 C4         -2.8809   -2.4266    0.0165 C.3       1 <0>        -0.1376
      7 S1         -2.7614   -4.2366    0.0057 S.3       1 <0>         0.1358
      8 C5         -4.4392   -4.7746    0.0188 C.2       1 <0>         0.0308
      9 N1         -5.5478   -4.0577    0.0274 N.2       1 <0>        -0.2816
     10 N2         -6.7701   -4.6889    0.0370 N.2       1 <0>        -0.2927
     11 C6         -6.8290   -6.0059    0.0376 C.2       1 <0>         0.3154
     12 S2         -5.0954   -6.4361    0.0161 S.3       1 <0>         0.0419
     13 N3         -7.9440   -6.8387    0.0463 N.am      1 <0>        -0.6050
     14 C7         -9.1824   -6.3068    0.0554 C.2       1 <0>         0.6072
     15 O3         -9.3254   -5.0991    0.0560 O.2       1 <0>        -0.4391
     16 C8        -10.3636   -7.1891    0.0647 C.2       1 <0>        -0.0190
     17 C9        -11.7215   -6.7791    0.0690 C.2       1 <0>         0.0868
     18 C10       -12.4464   -7.9269    0.0769 C.2       1 <0>        -0.0993
     19 N4        -11.5595   -8.9595    0.0772 N.pl3     1 <0>        -0.2051
     20 N5        -10.3565   -8.5091    0.0647 N.2       1 <0>        -0.2319
     21 C11       -11.9081  -10.3163    0.0847 C.ar      1 <0>         0.1289
     22 C12       -13.2451  -10.6911    0.0869 C.ar      1 <0>        -0.1219
     23 C13       -13.5855  -12.0296    0.0944 C.ar      1 <0>        -0.0951
     24 C14       -12.5965  -12.9961    0.1001 C.ar      1 <0>        -0.1133
     25 C15       -11.2641  -12.6260    0.0980 C.ar      1 <0>        -0.0968
     26 C16       -10.9172  -11.2892    0.0843 C.ar      1 <0>        -0.1066
     27 O4        -12.1972   -5.5042    0.0659 O.3       1 <0>        -0.2724
     28 C17       -13.6169   -5.3415    0.0715 C.3       1 <0>         0.0239
     29 H1          1.0039    1.9031    0.0027 H         1 <0>         0.0831
     30 H2         -0.5459    1.8868   -0.8726 H         1 <0>         0.0686
     31 H3         -0.5289    1.8773    0.9072 H         1 <0>         0.0686
     32 H4          0.5123   -0.3556   -0.8948 H         1 <0>         0.0725
     33 H5          0.5293   -0.3651    0.8851 H         1 <0>         0.0725
     34 H6         -3.4091   -2.1027    0.9134 H         1 <0>         0.1430
     35 H7         -3.4261   -2.0931   -0.8665 H         1 <0>         0.1430
     36 H8         -7.8300   -7.8020    0.0459 H         1 <0>         0.4350
     37 H9        -13.5235   -8.0058    0.0823 H         1 <0>         0.1915
     38 H10       -14.0181   -9.9368    0.0831 H         1 <0>         0.1342
     39 H11       -14.6253  -12.3218    0.0961 H         1 <0>         0.1380
     40 H12       -12.8652  -14.0421    0.1067 H         1 <0>         0.1339
     41 H13       -10.4939  -13.3831    0.1025 H         1 <0>         0.1379
     42 H14        -9.8764  -11.0008    0.0781 H         1 <0>         0.1424
     43 H15       -13.8608   -4.2791    0.0683 H         1 <0>         0.1074
     44 H16       -14.0403   -5.8142   -0.8147 H         1 <0>         0.0562
     45 H17       -14.0324   -5.8070    0.9652 H         1 <0>         0.0562
@<TRIPOS>BOND
     1    1    2 1
     2    1   29 1
     3    1   30 1
     4    1   31 1
     5    2    3 1
     6    2   32 1
     7    2   33 1
     8    3    4 1
     9    4    5 2
    10    4    6 1
    11    6    7 1
    12    6   34 1
    13    6   35 1
    14    7    8 1
    15    8   12 1
    16    8    9 2
    17    9   10 1
    18   10   11 2
    19   11   12 1
    20   11   13 1
    21   13   14 am
    22   13   36 1
    23   14   15 2
    24   14   16 1
    25   16   20 2
    26   16   17 1
    27   17   18 2
    28   17   27 1
    29   18   19 1
    30   18   37 1
    31   19   20 1
    32   19   21 1
    33   21   26 ar
    34   21   22 ar
    35   22   23 ar
    36   22   38 1
    37   23   24 ar
    38   23   39 1
    39   24   25 ar
    40   24   40 1
    41   25   26 ar
    42   25   41 1
    43   26   42 1
    44   27   28 1
    45   28   43 1
    46   28   44 1
    47   28   45 1
@<TRIPOS>MOLECULE
ZINC05014897
   50    52     0     0     0
SMALL
USER_CHARGES
2-[1-(4-chlorophenyl)tetrazol-5-yl]sulfanyl-N-(2-sec-butylphenyl)-propanamide
@<TRIPOS>ATOM
      1 C1         -6.4727   -7.1089    3.5731 C.3       1 <0>        -0.1557
      2 C2         -6.8448   -5.7542    4.1792 C.3       1 <0>        -0.1144
      3 C3         -5.6318   -5.1705    4.9065 C.3       1 <0>        -0.0497
      4 H1         -4.7857   -5.1223    4.2210 H         1 <0>         0.0689
      5 C4         -5.2735   -6.0620    6.0972 C.3       1 <0>        -0.1480
      6 C5         -5.9599   -3.7841    5.3977 C.ar      1 <0>        -0.1020
      7 C6         -6.9314   -3.6045    6.3631 C.ar      1 <0>        -0.0948
      8 C7         -7.2370   -2.3324    6.8102 C.ar      1 <0>        -0.1305
      9 C8         -6.5681   -1.2363    6.2963 C.ar      1 <0>        -0.1027
     10 C9         -5.5922   -1.4096    5.3349 C.ar      1 <0>        -0.1263
     11 C10        -5.2825   -2.6863    4.8839 C.ar      1 <0>         0.1449
     12 N1         -4.2941   -2.8653    3.9098 N.am      1 <0>        -0.6578
     13 C11        -3.9976   -1.8633    3.0586 C.2       1 <0>         0.5382
     14 O1         -4.6537   -0.8433    3.0705 O.2       1 <0>        -0.4989
     15 C12        -2.8507   -2.0102    2.0921 C.3       1 <0>        -0.1257
     16 H2         -2.0518   -2.5846    2.5609 H         1 <0>         0.1327
     17 C13        -3.3327   -2.7383    0.8357 C.3       1 <0>        -0.1487
     18 S1         -2.2298   -0.3716    1.6390 S.3       1 <0>         0.1268
     19 C14        -0.8421   -0.8314    0.6553 C.2       1 <0>         0.2050
     20 N2         -0.4492   -2.0568    0.3812 N.2       1 <0>        -0.3261
     21 N3          0.6014   -2.0379   -0.3568 N.2       1 <0>        -0.0202
     22 N4          0.9505   -0.8234   -0.6110 N.2       1 <0>        -0.0650
     23 N5          0.0217    0.0112    0.0351 N.pl3     1 <0>        -0.3141
     24 C15        -0.0030    1.4135    0.0420 C.ar      1 <0>         0.1232
     25 C16        -1.2167    2.0875    0.0418 C.ar      1 <0>        -0.1002
     26 C17        -1.2385    3.4684    0.0530 C.ar      1 <0>        -0.0841
     27 C18        -0.0517    4.1802    0.0542 C.ar      1 <0>        -0.0218
     28 C19         1.1593    3.5106    0.0495 C.ar      1 <0>        -0.0901
     29 C20         1.1862    2.1298    0.0431 C.ar      1 <0>        -0.0788
     30 Cl1        -0.0823    5.9159    0.0609 Cl        1 <0>        -0.0474
     31 H3         -5.6535   -6.9779    2.8661 H         1 <0>         0.0535
     32 H4         -6.1628   -7.7890    4.3664 H         1 <0>         0.0587
     33 H5         -7.3369   -7.5247    3.0549 H         1 <0>         0.0562
     34 H6         -7.6640   -5.8851    4.8862 H         1 <0>         0.0665
     35 H7         -7.1547   -5.0740    3.3858 H         1 <0>         0.0625
     36 H8         -5.0362   -7.0647    5.7418 H         1 <0>         0.0632
     37 H9         -4.4093   -5.6461    6.6153 H         1 <0>         0.0562
     38 H10        -6.1196   -6.1101    6.7826 H         1 <0>         0.0603
     39 H11        -7.4558   -4.4583    6.7661 H         1 <0>         0.1263
     40 H12        -7.9998   -2.1942    7.5621 H         1 <0>         0.1240
     41 H13        -6.8090   -0.2439    6.6476 H         1 <0>         0.1263
     42 H14        -5.0699   -0.5533    4.9342 H         1 <0>         0.1444
     43 H15        -3.8224   -3.7105    3.8471 H         1 <0>         0.4138
     44 H16        -4.1316   -2.1639    0.3668 H         1 <0>         0.0767
     45 H17        -2.5032   -2.8446    0.1366 H         1 <0>         0.0921
     46 H18        -3.7066   -3.7252    1.1086 H         1 <0>         0.0789
     47 H19        -2.1431    1.5324    0.0365 H         1 <0>         0.1492
     48 H20        -2.1824    3.9931    0.0567 H         1 <0>         0.1536
     49 H21         2.0842    4.0683    0.0504 H         1 <0>         0.1518
     50 H22         2.1316    1.6077    0.0388 H         1 <0>         0.1491
@<TRIPOS>BOND
     1    1    2 1
     2    1   31 1
     3    1   32 1
     4    1   33 1
     5    2    3 1
     6    2   34 1
     7    2   35 1
     8    3    4 1
     9    3    5 1
    10    3    6 1
    11    5   36 1
    12    5   37 1
    13    5   38 1
    14    6   11 ar
    15    6    7 ar
    16    7    8 ar
    17    7   39 1
    18    8    9 ar
    19    8   40 1
    20    9   10 ar
    21    9   41 1
    22   10   11 ar
    23   10   42 1
    24   11   12 1
    25   12   13 am
    26   12   43 1
    27   13   14 2
    28   13   15 1
    29   15   16 1
    30   15   17 1
    31   15   18 1
    32   17   44 1
    33   17   45 1
    34   17   46 1
    35   18   19 1
    36   19   23 1
    37   19   20 2
    38   20   21 1
    39   21   22 2
    40   22   23 1
    41   23   24 1
    42   24   29 ar
    43   24   25 ar
    44   25   26 ar
    45   25   47 1
    46   26   27 ar
    47   26   48 1
    48   27   28 ar
    49   27   30 1
    50   28   29 ar
    51   28   49 1
    52   29   50 1
@<TRIPOS>MOLECULE
ZINC11507765
   51    53     0     0     0
SMALL
USER_CHARGES
1-[(2,4-dimethylphenyl)carbamoyl]ethyl 2-(4-methoxyphenyl)thiazole-4-carboxylate
@<TRIPOS>ATOM
      1 C1         -4.8346    3.9511    0.0888 C.3       1 <0>        -0.1137
      2 C2         -3.5534    3.1578    0.0678 C.ar      1 <0>        -0.0982
      3 C3         -2.3907    3.7115    0.5721 C.ar      1 <0>        -0.1043
      4 C4         -1.2149    2.9875    0.5535 C.ar      1 <0>        -0.1220
      5 C5         -1.2009    1.7019    0.0281 C.ar      1 <0>         0.1401
      6 C6         -2.3689    1.1507   -0.4818 C.ar      1 <0>        -0.1110
      7 C7         -3.5428    1.8783   -0.4559 C.ar      1 <0>        -0.1009
      8 C8         -2.3570   -0.2417   -1.0580 C.3       1 <0>        -0.1165
      9 N1         -0.0111    0.9658    0.0074 N.am      1 <0>        -0.6636
     10 C9          1.1761    1.6039    0.0089 C.2       1 <0>         0.5165
     11 O1          1.2146    2.8135   -0.0707 O.2       1 <0>        -0.4873
     12 C10         2.4557    0.8143    0.1097 C.3       1 <0>         0.0697
     13 H1          2.5267    0.1281   -0.7343 H         1 <0>         0.1161
     14 C11         2.4623    0.0181    1.4162 C.3       1 <0>        -0.1671
     15 O2          3.5880    1.7231    0.0910 O.3       1 <0>        -0.3029
     16 C12         4.7376    1.2578   -0.4371 C.2       1 <0>         0.5455
     17 O3          4.7921    0.1233   -0.8703 O.2       1 <0>        -0.4990
     18 C13         5.9265    2.1231   -0.4894 C.2       1 <0>         0.0169
     19 C14         7.1040    1.6568   -1.0207 C.2       1 <0>        -0.1588
     20 S1          8.1386    3.0398   -0.8401 S.3       1 <0>         0.1149
     21 C15         6.9506    4.1287   -0.0709 C.2       1 <0>         0.1533
     22 N2          5.8772    3.3614   -0.0192 N.2       1 <0>        -0.4545
     23 C16         7.1234    5.5238    0.3871 C.ar      1 <0>        -0.0639
     24 C17         6.0525    6.2085    0.9640 C.ar      1 <0>        -0.0216
     25 C18         6.2188    7.5074    1.3941 C.ar      1 <0>        -0.2101
     26 C19         7.4469    8.1384    1.2449 C.ar      1 <0>         0.1532
     27 C20         8.5131    7.4624    0.6661 C.ar      1 <0>        -0.1503
     28 C21         8.3561    6.1615    0.2384 C.ar      1 <0>        -0.0485
     29 O4          7.6056    9.4202    1.6657 O.3       1 <0>        -0.3121
     30 C22         6.4681   10.0561    2.2519 C.3       1 <0>         0.0232
     31 H2         -4.9225    4.5238   -0.8344 H         1 <0>         0.0699
     32 H3         -5.6817    3.2708    0.1765 H         1 <0>         0.0658
     33 H4         -4.8262    4.6324    0.9396 H         1 <0>         0.0663
     34 H5         -2.4022    4.7112    0.9805 H         1 <0>         0.1256
     35 H6         -0.3071    3.4207    0.9468 H         1 <0>         0.1455
     36 H7         -4.4524    1.4489   -0.8492 H         1 <0>         0.1263
     37 H8         -2.5767   -0.9627   -0.2706 H         1 <0>         0.0727
     38 H9         -3.1117   -0.3174   -1.8409 H         1 <0>         0.0736
     39 H10        -1.3741   -0.4522   -1.4794 H         1 <0>         0.0620
     40 H11        -0.0407   -0.0035   -0.0122 H         1 <0>         0.4118
     41 H12         3.3878   -0.5530    1.4890 H         1 <0>         0.0801
     42 H13         2.3913    0.7043    2.2601 H         1 <0>         0.0772
     43 H14         1.6123   -0.6641    1.4302 H         1 <0>         0.0832
     44 H15         7.3269    0.6873   -1.4411 H         1 <0>         0.2146
     45 H16         5.0961    5.7197    1.0770 H         1 <0>         0.1424
     46 H17         5.3918    8.0364    1.8444 H         1 <0>         0.1385
     47 H18         9.4666    7.9564    0.5514 H         1 <0>         0.1420
     48 H19         9.1856    5.6364   -0.2116 H         1 <0>         0.1354
     49 H20         5.6541   10.0843    1.5275 H         1 <0>         0.0599
     50 H21         6.1520    9.4960    3.1319 H         1 <0>         0.0597
     51 H22         6.7304   11.0731    2.5434 H         1 <0>         0.1041
@<TRIPOS>BOND
     1    1    2 1
     2    1   31 1
     3    1   32 1
     4    1   33 1
     5    2    7 ar
     6    2    3 ar
     7    3    4 ar
     8    3   34 1
     9    4    5 ar
    10    4   35 1
    11    5    6 ar
    12    5    9 1
    13    6    7 ar
    14    6    8 1
    15    7   36 1
    16    8   37 1
    17    8   38 1
    18    8   39 1
    19    9   10 am
    20    9   40 1
    21   10   11 2
    22   10   12 1
    23   12   13 1
    24   12   14 1
    25   12   15 1
    26   14   41 1
    27   14   42 1
    28   14   43 1
    29   15   16 1
    30   16   17 2
    31   16   18 1
    32   18   22 1
    33   18   19 2
    34   19   20 1
    35   19   44 1
    36   20   21 1
    37   21   22 2
    38   21   23 1
    39   23   28 ar
    40   23   24 ar
    41   24   25 ar
    42   24   45 1
    43   25   26 ar
    44   25   46 1
    45   26   27 ar
    46   26   29 1
    47   27   28 ar
    48   27   47 1
    49   28   48 1
    50   29   30 1
    51   30   49 1
    52   30   50 1
    53   30   51 1
@<TRIPOS>MOLECULE
ZINC19349661
   43    46     0     0     0
SMALL
USER_CHARGES
N-[5-[(2-fluorophenyl)methyl]thiazol-2-yl]-3-[3-(2-thienyl)-1,2,4-oxadiazol-5-yl]propanamide
@<TRIPOS>ATOM
      1 C1         -0.4500  -14.0101   -5.1653 C.ar      1 <0>        -0.1283
      2 C2         -1.1707  -14.4194   -4.0586 C.ar      1 <0>        -0.0902
      3 C3         -0.5801  -14.4174   -2.8094 C.ar      1 <0>        -0.1529
      4 C4          0.7355  -14.0093   -2.6668 C.ar      1 <0>         0.1084
      5 C5          1.4546  -13.5952   -3.7749 C.ar      1 <0>        -0.1190
      6 C6          0.8619  -13.5985   -5.0236 C.ar      1 <0>        -0.0843
      7 C7          2.8851  -13.1469   -3.6208 C.3       1 <0>         0.0143
      8 C8          2.9150  -11.7244   -3.1241 C.2       1 <0>        -0.1964
      9 C9          2.9338  -11.2521   -1.8537 C.2       1 <0>         0.0672
     10 N1          2.9583   -9.9467   -1.6689 N.2       1 <0>        -0.5120
     11 C10         2.9646   -9.1120   -2.6899 C.2       1 <0>         0.3073
     12 S1          2.9266  -10.1944   -4.0472 S.3       1 <0>         0.0552
     13 N2          2.9891   -7.7222   -2.6816 N.am      1 <0>        -0.6344
     14 C11         3.0110   -7.0556   -1.5104 C.2       1 <0>         0.5160
     15 O1          3.0094   -7.6683   -0.4638 O.2       1 <0>        -0.4677
     16 C12         3.0376   -5.5489   -1.5014 C.3       1 <0>        -0.1352
     17 C13         3.0590   -5.0478   -0.0560 C.3       1 <0>        -0.0164
     18 C14         3.0856   -3.5410   -0.0470 C.2       1 <0>         0.1904
     19 N3          2.0458   -2.7457   -0.0272 N.2       1 <0>        -0.4664
     20 C15         2.5493   -1.4889   -0.0303 C.2       1 <0>         0.2552
     21 N4          3.8552   -1.5969   -0.0424 N.2       1 <0>        -0.3636
     22 O2          4.1754   -2.7668   -0.0521 O.3       1 <0>         0.0901
     23 C16         1.7728   -0.2322   -0.0161 C.2       1 <0>        -0.1118
     24 C17         2.2238    1.0612   -0.0135 C.2       1 <0>        -0.1033
     25 C18         1.3025    2.0836    0.0008 C.2       1 <0>        -0.1653
     26 C19        -0.0221    1.7810    0.0118 C.2       1 <0>        -0.1604
     27 S2          0.0021   -0.0041    0.0020 S.3       1 <0>         0.1262
     28 F1          1.3157  -14.0118   -1.4467 F         1 <0>        -0.1348
     29 H1         -0.9124  -14.0124   -6.1413 H         1 <0>         0.1312
     30 H2         -2.1956  -14.7411   -4.1706 H         1 <0>         0.1334
     31 H3         -1.1431  -14.7375   -1.9451 H         1 <0>         0.1364
     32 H4          1.4239  -13.2791   -5.8887 H         1 <0>         0.1326
     33 H5          3.3977  -13.7986   -2.8979 H         1 <0>         0.1049
     34 H6          3.3948  -13.2064   -4.5937 H         1 <0>         0.0969
     35 H7          2.9292  -11.9292   -1.0124 H         1 <0>         0.1715
     36 H8          2.9906   -7.1665   -3.6309 H         1 <0>         0.4554
     37 H9          3.9376   -5.1950   -2.0255 H         1 <0>         0.1126
     38 H10         2.1417   -5.1633   -2.0099 H         1 <0>         0.1133
     39 H11         2.1590   -5.4018    0.4681 H         1 <0>         0.1254
     40 H12         3.9549   -5.4334    0.4525 H         1 <0>         0.1187
     41 H13         3.2825    1.2748   -0.0221 H         1 <0>         0.1413
     42 H14         1.6282    3.1133    0.0029 H         1 <0>         0.1437
     43 H15        -0.8711    2.4485    0.0197 H         1 <0>         0.1949
@<TRIPOS>BOND
     1    1    6 ar
     2    1    2 ar
     3    1   29 1
     4    2    3 ar
     5    2   30 1
     6    3    4 ar
     7    3   31 1
     8    4    5 ar
     9    4   28 1
    10    5    6 ar
    11    5    7 1
    12    6   32 1
    13    7    8 1
    14    7   33 1
    15    7   34 1
    16    8   12 1
    17    8    9 2
    18    9   10 1
    19    9   35 1
    20   10   11 2
    21   11   12 1
    22   11   13 1
    23   13   14 am
    24   13   36 1
    25   14   15 2
    26   14   16 1
    27   16   17 1
    28   16   37 1
    29   16   38 1
    30   17   18 1
    31   17   39 1
    32   17   40 1
    33   18   22 1
    34   18   19 2
    35   19   20 1
    36   20   21 2
    37   20   23 1
    38   21   22 1
    39   23   27 1
    40   23   24 2
    41   24   25 1
    42   24   41 1
    43   25   26 2
    44   25   42 1
    45   26   27 1
    46   26   43 1
@<TRIPOS>MOLECULE
ZINC00892191
   56    59     0     0     0
SMALL
USER_CHARGES

@<TRIPOS>ATOM
      1 C1         -0.2968    1.0415   -1.7526 C.3       1 <0>         0.0291
      2 O1         -0.1841   -0.2594   -1.1721 O.3       1 <0>        -0.3213
      3 C2         -1.2943   -0.7660   -0.5722 C.ar      1 <0>         0.1004
      4 C3         -2.4678   -0.0298   -0.5480 C.ar      1 <0>        -0.1883
      5 C4         -3.5956   -0.5462    0.0622 C.ar      1 <0>        -0.0950
      6 C5         -3.5571   -1.7975    0.6493 C.ar      1 <0>        -0.1336
      7 C6         -2.3907   -2.5384    0.6291 C.ar      1 <0>        -0.0944
      8 C7         -1.2563   -2.0289    0.0144 C.ar      1 <0>         0.1178
      9 N1         -0.0738   -2.7803   -0.0117 N.am      1 <0>        -0.6531
     10 C8         -0.1268   -4.1236    0.0833 C.2       1 <0>         0.5370
     11 O2         -1.1997   -4.6893    0.0903 O.2       1 <0>        -0.5044
     12 C9          1.1470   -4.9229    0.1809 C.3       1 <0>        -0.1493
     13 S1          0.7459   -6.6883    0.2954 S.3       1 <0>         0.0873
     14 C10         2.3181   -7.4767    0.4016 C.2       1 <0>         0.1455
     15 N2          3.4901   -6.8849    0.4016 N.2       1 <0>        -0.2910
     16 N3          4.4240   -7.7631    0.4921 N.2       1 <0>        -0.2744
     17 C11         3.9108   -8.9592    0.5550 C.2       1 <0>         0.2051
     18 N4          2.5489   -8.8210    0.5056 N.pl3     1 <0>        -0.4146
     19 C12         1.5910   -9.8445    0.5495 C.ar      1 <0>         0.1005
     20 C13         1.4485  -10.6149    1.6954 C.ar      1 <0>        -0.0994
     21 C14         0.5040  -11.6219    1.7359 C.ar      1 <0>        -0.1049
     22 C15        -0.2989  -11.8632    0.6363 C.ar      1 <0>        -0.0995
     23 C16        -0.1593  -11.0974   -0.5065 C.ar      1 <0>        -0.1027
     24 C17         0.7796  -10.0853   -0.5508 C.ar      1 <0>        -0.0969
     25 C18         4.6738  -10.2539    0.6673 C.3       1 <0>         0.0031
     26 C19         5.5112  -10.2429    1.9477 C.3       1 <0>        -0.1078
     27 C20         6.2860  -11.5573    2.0617 C.3       1 <0>        -0.1176
     28 C21         7.2079  -11.7126    0.8507 C.3       1 <0>        -0.1228
     29 C22         6.3705  -11.7236   -0.4298 C.3       1 <0>        -0.1176
     30 C23         5.5958  -10.4092   -0.5438 C.3       1 <0>        -0.1077
     31 H1          0.6575    1.3252   -2.1963 H         1 <0>         0.1022
     32 H2         -1.0669    1.0297   -2.5239 H         1 <0>         0.0571
     33 H3         -0.5669    1.7618   -0.9804 H         1 <0>         0.0573
     34 H4         -2.5012    0.9479   -1.0057 H         1 <0>         0.1332
     35 H5         -4.5092    0.0295    0.0807 H         1 <0>         0.1277
     36 H6         -4.4406   -2.1967    1.1252 H         1 <0>         0.1297
     37 H7         -2.3634   -3.5155    1.0885 H         1 <0>         0.1529
     38 H8          0.7829   -2.3336   -0.0981 H         1 <0>         0.4190
     39 H9          1.7561   -4.7455   -0.7054 H         1 <0>         0.1299
     40 H10         1.7003   -4.6177    1.0691 H         1 <0>         0.1308
     41 H11         2.0759  -10.4274    2.5543 H         1 <0>         0.1301
     42 H12         0.3927  -12.2216    2.6272 H         1 <0>         0.1367
     43 H13        -1.0363  -12.6516    0.6700 H         1 <0>         0.1345
     44 H14        -0.7875  -11.2884   -1.3639 H         1 <0>         0.1374
     45 H15         0.8855   -9.4848   -1.4422 H         1 <0>         0.1321
     46 H16         3.9723  -11.0875    0.6991 H         1 <0>         0.0878
     47 H17         6.2128   -9.4093    1.9159 H         1 <0>         0.0779
     48 H18         4.8544  -10.1323    2.8105 H         1 <0>         0.0616
     49 H19         6.8826  -11.5495    2.9739 H         1 <0>         0.0684
     50 H20         5.5844  -12.3909    2.0936 H         1 <0>         0.0630
     51 H21         7.9095  -10.8790    0.8188 H         1 <0>         0.0659
     52 H22         7.7599  -12.6490    0.9319 H         1 <0>         0.0647
     53 H23         7.0273  -11.8342   -1.2926 H         1 <0>         0.0683
     54 H24         5.6690  -12.5572   -0.3979 H         1 <0>         0.0628
     55 H25         4.9992  -10.4170   -1.4560 H         1 <0>         0.0620
     56 H26         6.2973   -9.5755   -0.5756 H         1 <0>         0.0776
@<TRIPOS>BOND
     1    1    2 1
     2    1   31 1
     3    1   32 1
     4    1   33 1
     5    2    3 1
     6    3    8 ar
     7    3    4 ar
     8    4    5 ar
     9    4   34 1
    10    5    6 ar
    11    5   35 1
    12    6    7 ar
    13    6   36 1
    14    7    8 ar
    15    7   37 1
    16    8    9 1
    17    9   10 am
    18    9   38 1
    19   10   11 2
    20   10   12 1
    21   12   13 1
    22   12   39 1
    23   12   40 1
    24   13   14 1
    25   14   18 1
    26   14   15 2
    27   15   16 1
    28   16   17 2
    29   17   18 1
    30   17   25 1
    31   18   19 1
    32   19   24 ar
    33   19   20 ar
    34   20   21 ar
    35   20   41 1
    36   21   22 ar
    37   21   42 1
    38   22   23 ar
    39   22   43 1
    40   23   24 ar
    41   23   44 1
    42   24   45 1
    43   25   30 1
    44   25   26 1
    45   25   46 1
    46   26   27 1
    47   26   47 1
    48   26   48 1
    49   27   28 1
    50   27   49 1
    51   27   50 1
    52   28   29 1
    53   28   51 1
    54   28   52 1
    55   29   30 1
    56   29   53 1
    57   29   54 1
    58   30   55 1
    59   30   56 1
@<TRIPOS>MOLECULE
ZINC46370338
   49    52     0     0     0
SMALL
USER_CHARGES

@<TRIPOS>ATOM
      1 C1         -0.0167    1.3781    0.0096 C.ar      1 <0>        -0.1137
      2 C2          1.1709    2.0855    0.0021 C.ar      1 <0>        -0.1133
      3 C3          2.3773    1.4107   -0.0130 C.ar      1 <0>        -0.1022
      4 C4          2.3960    0.0285   -0.0201 C.ar      1 <0>        -0.0927
      5 C5          1.2084   -0.6789   -0.0117 C.ar      1 <0>        -0.1114
      6 C6          0.0021   -0.0041    0.0020 C.ar      1 <0>        -0.1145
      7 C7          3.7112   -0.7071   -0.0376 C.3       1 <0>         0.2318
      8 H1          4.4960   -0.0399   -0.3940 H         1 <0>         0.1098
      9 C8          4.0438   -1.1746    1.3559 C.ar      1 <0>        -0.0791
     10 C9          3.4553   -2.3199    1.8596 C.ar      1 <0>        -0.1001
     11 C10         3.7598   -2.7493    3.1376 C.ar      1 <0>        -0.1059
     12 C11         4.6527   -2.0337    3.9131 C.ar      1 <0>        -0.1082
     13 C12         5.2419   -0.8878    3.4098 C.ar      1 <0>        -0.0313
     14 C13         4.9412   -0.4618    2.1280 C.ar      1 <0>        -0.0919
     15 Cl1         6.3633    0.0115    4.3831 Cl        1 <0>        -0.0661
     16 N1          3.6115   -1.8645   -0.9302 N.am      1 <0>        -0.7226
     17 C14         4.7211   -2.3705   -1.5040 C.2       1 <0>         0.5232
     18 O1          5.8021   -1.8677   -1.2814 O.2       1 <0>        -0.5248
     19 C15         4.6185   -3.5611   -2.4222 C.3       1 <0>        -0.1394
     20 C16         6.0118   -3.9314   -2.9346 C.3       1 <0>        -0.0234
     21 C17         5.9093   -5.1219   -3.8529 C.2       1 <0>         0.3007
     22 N2          5.7313   -5.0756   -5.1423 N.2       1 <0>        -0.5329
     23 C18         5.6868   -6.3219   -5.6462 C.2       1 <0>         0.3016
     24 N3          5.8384   -7.1760   -4.6645 N.2       1 <0>        -0.3321
     25 O2          5.9915   -6.4060   -3.4815 O.3       1 <0>        -0.0968
     26 C19         5.4969   -6.6712   -7.0762 C.ar      1 <0>        -0.0939
     27 C20         5.4618   -8.0082   -7.4819 C.ar      1 <0>        -0.0327
     28 C21         5.2824   -8.2816   -8.8269 C.ar      1 <0>        -0.1750
     29 C22         5.1450   -7.2327   -9.7180 C.ar      1 <0>         0.1254
     30 N4          5.1828   -5.9806   -9.3051 N.ar      1 <0>        -0.4836
     31 C23         5.3451   -5.6721   -8.0347 C.ar      1 <0>         0.1582
     32 H2         -0.9591    1.9053    0.0259 H         1 <0>         0.1247
     33 H3          1.1563    3.1654    0.0076 H         1 <0>         0.1266
     34 H4          3.3051    1.9634   -0.0196 H         1 <0>         0.1259
     35 H5          1.2231   -1.7588   -0.0176 H         1 <0>         0.1193
     36 H6         -0.9258   -0.5567    0.0082 H         1 <0>         0.1253
     37 H7          2.7570   -2.8790    1.2544 H         1 <0>         0.1236
     38 H8          3.2998   -3.6440    3.5305 H         1 <0>         0.1332
     39 H9          4.8901   -2.3689    4.9120 H         1 <0>         0.1341
     40 H10         5.4042    0.4304    1.7328 H         1 <0>         0.1341
     41 H11         2.7469   -2.2666   -1.1082 H         1 <0>         0.4032
     42 H12         4.1957   -4.4050   -1.8771 H         1 <0>         0.1054
     43 H13         3.9746   -3.3144   -3.2664 H         1 <0>         0.1093
     44 H14         6.4346   -3.0875   -3.4798 H         1 <0>         0.1262
     45 H15         6.6557   -4.1780   -2.0905 H         1 <0>         0.1164
     46 H16         5.5722   -8.8077   -6.7643 H         1 <0>         0.1444
     47 H17         5.2505   -9.3029   -9.1768 H         1 <0>         0.1473
     48 H18         5.0049   -7.4422  -10.7681 H         1 <0>         0.1660
     49 H19         5.3658   -4.6349   -7.7343 H         1 <0>         0.1721
@<TRIPOS>BOND
     1    1    6 ar
     2    1    2 ar
     3    1   32 1
     4    2    3 ar
     5    2   33 1
     6    3    4 ar
     7    3   34 1
     8    4    5 ar
     9    4    7 1
    10    5    6 ar
    11    5   35 1
    12    6   36 1
    13    7    8 1
    14    7    9 1
    15    7   16 1
    16    9   14 ar
    17    9   10 ar
    18   10   11 ar
    19   10   37 1
    20   11   12 ar
    21   11   38 1
    22   12   13 ar
    23   12   39 1
    24   13   14 ar
    25   13   15 1
    26   14   40 1
    27   16   17 am
    28   16   41 1
    29   17   18 2
    30   17   19 1
    31   19   20 1
    32   19   42 1
    33   19   43 1
    34   20   21 1
    35   20   44 1
    36   20   45 1
    37   21   25 1
    38   21   22 2
    39   22   23 1
    40   23   24 2
    41   23   26 1
    42   24   25 1
    43   26   31 ar
    44   26   27 ar
    45   27   28 ar
    46   27   46 1
    47   28   29 ar
    48   28   47 1
    49   29   30 ar
    50   29   48 1
    51   30   31 ar
    52   31   49 1
@<TRIPOS>MOLECULE
ZINC06736317
   43    45     0     0     0
SMALL
USER_CHARGES
3-(7-ethyl-1H-indol-3-yl)-3-[2-(trifluoromethyl)phenyl]-propanoic acid
@<TRIPOS>ATOM
      1 C1          4.3052    9.8420    3.0343 C.3       1 <0>        -0.1469
      2 C2          5.4936    9.0542    2.4794 C.3       1 <0>        -0.0782
      3 C3          5.2119    7.5777    2.5872 C.ar      1 <0>        -0.1013
      4 C4          5.6685    6.8643    3.6740 C.ar      1 <0>        -0.1008
      5 C5          5.4157    5.5042    3.7849 C.ar      1 <0>        -0.1508
      6 C6          4.7074    4.8486    2.8174 C.ar      1 <0>        -0.0611
      7 C7          4.2356    5.5517    1.7076 C.ar      1 <0>        -0.0916
      8 C8          4.4896    6.9306    1.5901 C.ar      1 <0>         0.1030
      9 N1          3.9123    7.3510    0.4129 N.pl3     1 <0>        -0.5944
     10 H1          3.9318    8.2605    0.0764 H         1 <0>         0.4112
     11 C9          3.3119    6.2934   -0.2144 C.2       1 <0>         0.0463
     12 C10         3.4663    5.1791    0.5180 C.2       1 <0>        -0.1413
     13 C11         2.9515    3.8043    0.1776 C.3       1 <0>         0.0215
     14 H2          3.2389    3.1042    0.9621 H         1 <0>         0.0898
     15 C12         1.4262    3.8445    0.0638 C.3       1 <0>        -0.1465
     16 C13         0.9033    2.4513   -0.1740 C.2       1 <0>         0.4564
     17 O1          1.6748    1.5387   -0.3522 O.co2     1 <0>        -0.6171
     18 C14         3.5415    3.3577   -1.1352 C.ar      1 <0>         0.0317
     19 C15         3.1774    3.9923   -2.3083 C.ar      1 <0>        -0.1273
     20 C16         3.7185    3.5827   -3.5123 C.ar      1 <0>        -0.0915
     21 C17         4.6247    2.5389   -3.5435 C.ar      1 <0>        -0.1405
     22 C18         4.9890    1.9048   -2.3707 C.ar      1 <0>        -0.0767
     23 C19         4.4510    2.3174   -1.1658 C.ar      1 <0>        -0.1565
     24 C20         4.8526    1.6297    0.1136 C.3       1 <0>         0.5005
     25 F1          5.8344    0.6715   -0.1603 F         1 <0>        -0.1919
     26 F2          5.3608    2.5747    1.0113 F         1 <0>        -0.1817
     27 F3          3.7353    1.0045    0.6775 F         1 <0>        -0.1414
     28 H3          3.4098    9.6002    2.4616 H         1 <0>         0.0520
     29 H4          4.1501    9.5771    4.0801 H         1 <0>         0.0579
     30 H5          4.5090   10.9099    2.9563 H         1 <0>         0.0542
     31 H6          6.3890    9.2959    3.0521 H         1 <0>         0.0715
     32 H7          5.6487    9.3191    1.4335 H         1 <0>         0.0605
     33 H8          6.2292    7.3686    4.4471 H         1 <0>         0.1190
     34 H9          5.7808    4.9597    4.6433 H         1 <0>         0.1188
     35 H10         4.5141    3.7901    2.9106 H         1 <0>         0.1215
     36 H11         2.7895    6.3476   -1.1581 H         1 <0>         0.1670
     37 H12         1.1409    4.4869   -0.7693 H         1 <0>         0.0638
     38 H13         1.0032    4.2386    0.9879 H         1 <0>         0.0693
     39 H14         2.4699    4.8079   -2.2838 H         1 <0>         0.1241
     40 H15         3.4338    4.0782   -4.4287 H         1 <0>         0.1230
     41 H16         5.0475    2.2188   -4.4843 H         1 <0>         0.1245
     42 H17         5.6966    1.0892   -2.3951 H         1 <0>         0.1294
     43 O2         -0.4196    2.2243   -0.1879 O.co2     1 <0>        -0.7792
@<TRIPOS>BOND
     1    1    2 1
     2    1   28 1
     3    1   29 1
     4    1   30 1
     5    2    3 1
     6    2   31 1
     7    2   32 1
     8    3    8 ar
     9    3    4 ar
    10    4    5 ar
    11    4   33 1
    12    5    6 ar
    13    5   34 1
    14    6    7 ar
    15    6   35 1
    16    7   12 1
    17    7    8 ar
    18    8    9 1
    19    9   10 1
    20    9   11 1
    21   11   12 2
    22   11   36 1
    23   12   13 1
    24   13   14 1
    25   13   15 1
    26   13   18 1
    27   15   16 1
    28   15   37 1
    29   15   38 1
    30   16   17 2
    31   16   43 1
    32   18   23 ar
    33   18   19 ar
    34   19   20 ar
    35   19   39 1
    36   20   21 ar
    37   20   40 1
    38   21   22 ar
    39   21   41 1
    40   22   23 ar
    41   22   42 1
    42   23   24 1
    43   24   25 1
    44   24   26 1
    45   24   27 1
@<TRIPOS>MOLECULE
ZINC33698399
   40    42     0     0     0
SMALL
USER_CHARGES
2-fluoro-N-[4-(2-methylphenoxy)phenyl]benzenesulfonamide
@<TRIPOS>ATOM
      1 C1         -4.6959    7.4395    2.5112 C.3       1 <0>        -0.1021
      2 C2         -4.6745    6.7822    1.1553 C.ar      1 <0>        -0.1236
      3 C3         -5.0045    7.5104    0.0286 C.ar      1 <0>        -0.0903
      4 C4         -4.9847    6.9082   -1.2157 C.ar      1 <0>        -0.1618
      5 C5         -4.6347    5.5757   -1.3361 C.ar      1 <0>        -0.0892
      6 C6         -4.2988    4.8445   -0.2136 C.ar      1 <0>        -0.1890
      7 C7         -4.3230    5.4452    1.0372 C.ar      1 <0>         0.1297
      8 O1         -3.9975    4.7268    2.1437 O.3       1 <0>        -0.2496
      9 C8         -3.5341    3.4604    1.9691 C.ar      1 <0>        -0.0040
     10 C9         -4.2989    2.3792    2.3823 C.ar      1 <0>        -0.0954
     11 C10        -3.8290    1.0928    2.2053 C.ar      1 <0>        -0.1483
     12 C11        -2.5906    0.8815    1.6136 C.ar      1 <0>         0.2348
     13 C12        -1.8233    1.9645    1.2050 C.ar      1 <0>        -0.2025
     14 C13        -2.2971    3.2502    1.3774 C.ar      1 <0>        -0.1044
     15 N1         -2.1136   -0.4216    1.4343 N.2       1 <0>        -1.0588
     16 S1         -1.4458   -0.8670   -0.0141 S.o2      1 <0>         2.5869
     17 O2         -1.1556   -2.2547    0.0821 O.2       1 <0>        -0.9880
     18 O3         -0.4500    0.1004   -0.3168 O.2       1 <0>        -1.0345
     19 C14        -2.7004   -0.6987   -1.2398 C.ar      1 <0>        -0.6950
     20 C15        -2.5593    0.2339   -2.2501 C.ar      1 <0>        -0.0067
     21 C16        -3.5429    0.3656   -3.2123 C.ar      1 <0>        -0.1601
     22 C17        -4.6692   -0.4351   -3.1651 C.ar      1 <0>        -0.0607
     23 C18        -4.8127   -1.3678   -2.1558 C.ar      1 <0>        -0.1835
     24 C19        -3.8277   -1.5009   -1.1916 C.ar      1 <0>         0.1946
     25 F1         -3.9641   -2.4167   -0.2078 F         1 <0>        -0.1182
     26 H1         -4.9961    8.4923    2.4036 H         1 <0>         0.0598
     27 H2         -3.6927    7.3882    2.9594 H         1 <0>         0.0677
     28 H3         -5.4146    6.9178    3.1603 H         1 <0>         0.0673
     29 H4         -5.2779    8.5513    0.1199 H         1 <0>         0.1234
     30 H5         -5.2427    7.4793   -2.0952 H         1 <0>         0.1183
     31 H6         -4.6200    5.1076   -2.3093 H         1 <0>         0.1202
     32 H7         -4.0212    3.8051   -0.3087 H         1 <0>         0.1339
     33 H8         -5.2618    2.5436    2.8428 H         1 <0>         0.1149
     34 H9         -4.4246    0.2511    2.5267 H         1 <0>         0.1211
     35 H10        -0.8581    1.8012    0.7487 H         1 <0>         0.1460
     36 H11        -1.7024    4.0924    1.0557 H         1 <0>         0.1110
     37 H12        -1.6800    0.8598   -2.2879 H         1 <0>         0.1429
     38 H13        -3.4314    1.0941   -4.0017 H         1 <0>         0.1285
     39 H14        -5.4369   -0.3316   -3.9177 H         1 <0>         0.1302
     40 H15        -5.6923   -1.9933   -2.1194 H         1 <0>         0.1348
@<TRIPOS>BOND
     1    1    2 1
     2    1   26 1
     3    1   27 1
     4    1   28 1
     5    2    7 ar
     6    2    3 ar
     7    3    4 ar
     8    3   29 1
     9    4    5 ar
    10    4   30 1
    11    5    6 ar
    12    5   31 1
    13    6    7 ar
    14    6   32 1
    15    7    8 1
    16    8    9 1
    17    9   14 ar
    18    9   10 ar
    19   10   11 ar
    20   10   33 1
    21   11   12 ar
    22   11   34 1
    23   12   13 ar
    24   12   15 1
    25   13   14 ar
    26   13   35 1
    27   14   36 1
    28   15   16 1
    29   16   17 2
    30   16   18 2
    31   16   19 1
    32   19   24 ar
    33   19   20 ar
    34   20   21 ar
    35   20   37 1
    36   21   22 ar
    37   21   38 1
    38   22   23 ar
    39   22   39 1
    40   23   24 ar
    41   23   40 1
    42   24   25 1
@<TRIPOS>MOLECULE
ZINC37506750
   36    38     0     0     0
SMALL
USER_CHARGES

@<TRIPOS>ATOM
      1 C1         -0.0513    1.3031    0.0343 C.ar      1 <0>        -0.2083
      2 C2          1.0930    2.0861    0.0100 C.ar      1 <0>        -0.0765
      3 C3          2.3408    1.4999   -0.0297 C.ar      1 <0>        -0.2308
      4 C4          2.4596    0.1152   -0.0457 C.ar      1 <0>         0.2507
      5 C5          1.3024   -0.6815   -0.0212 C.ar      1 <0>        -0.2212
      6 C6          0.0444   -0.0701    0.0190 C.ar      1 <0>        -0.0372
      7 C7          1.4126   -2.1477   -0.0377 C.2       1 <0>         0.5326
      8 O1          0.4052   -2.8359   -0.1295 O.co2     1 <0>        -0.6851
      9 O2          2.5119   -2.6794    0.0403 O.co2     1 <0>        -0.6921
     10 N1          3.7134   -0.4768   -0.0861 N.pl3     1 <0>        -0.7144
     11 C8          4.9114    0.3539   -0.2311 C.3       1 <0>         0.1241
     12 C9          5.5662    0.2538   -1.6189 C.3       1 <0>        -0.1441
     13 C10         6.9221    0.2701   -0.8936 C.3       1 <0>        -0.0776
     14 C11         6.1854   -0.2992    0.3303 C.3       1 <0>        -0.1382
     15 C12         7.9340   -0.6778   -1.4840 C.ar      1 <0>        -0.0452
     16 C13         7.6642   -2.0327   -1.5348 C.ar      1 <0>        -0.1077
     17 C14         8.5918   -2.9024   -2.0766 C.ar      1 <0>        -0.0860
     18 C15         9.7902   -2.4169   -2.5680 C.ar      1 <0>        -0.0977
     19 C16        10.0598   -1.0611   -2.5169 C.ar      1 <0>        -0.0918
     20 C17         9.1293   -0.1915   -1.9797 C.ar      1 <0>        -0.1140
     21 Br1        11.0600   -3.6064   -3.3088 Br        1 <0>        -0.0605
     22 H1         -1.0230    1.7732    0.0700 H         1 <0>         0.1068
     23 H2          1.0064    3.1626    0.0220 H         1 <0>         0.1070
     24 H3          3.2265    2.1175   -0.0488 H         1 <0>         0.1106
     25 H4         -0.8503   -0.6747    0.0384 H         1 <0>         0.1210
     26 H5          3.7969   -1.4408   -0.0184 H         1 <0>         0.4230
     27 H6          4.7597    1.3784    0.1087 H         1 <0>         0.0998
     28 H7          5.3576   -0.6842   -2.1335 H         1 <0>         0.0886
     29 H8          5.3959    1.1288   -2.2462 H         1 <0>         0.0692
     30 H9          7.3209    1.2723   -0.7361 H         1 <0>         0.1004
     31 H10         6.5151    0.1295    1.2767 H         1 <0>         0.0731
     32 H11         6.1461   -1.3883    0.3487 H         1 <0>         0.0920
     33 H12         6.7286   -2.4116   -1.1508 H         1 <0>         0.1378
     34 H13         8.3811   -3.9609   -2.1160 H         1 <0>         0.1327
     35 H14        10.9953   -0.6816   -2.9005 H         1 <0>         0.1294
     36 H15         9.3380    0.8675   -1.9436 H         1 <0>         0.1297
@<TRIPOS>BOND
     1    1    6 ar
     2    1    2 ar
     3    1   22 1
     4    2    3 ar
     5    2   23 1
     6    3    4 ar
     7    3   24 1
     8    4    5 ar
     9    4   10 1
    10    5    6 ar
    11    5    7 1
    12    6   25 1
    13    7    8 2
    14    7    9 1
    15   10   11 1
    16   10   26 1
    17   11   14 1
    18   11   12 1
    19   11   27 1
    20   12   13 1
    21   12   28 1
    22   12   29 1
    23   13   14 1
    24   13   15 1
    25   13   30 1
    26   14   31 1
    27   14   32 1
    28   15   20 ar
    29   15   16 ar
    30   16   17 ar
    31   16   33 1
    32   17   18 ar
    33   17   34 1
    34   18   19 ar
    35   18   21 1
    36   19   20 ar
    37   19   35 1
    38   20   36 1
@<TRIPOS>MOLECULE
ZINC41606886
   42    44     0     0     0
SMALL
USER_CHARGES

@<TRIPOS>ATOM
      1 C1         -0.0184    1.5028    0.0103 C.3       1 <0>        -0.1087
      2 C2          0.0021   -0.0041    0.0020 C.ar      1 <0>        -0.1307
      3 C3          0.0057   -0.6876   -1.1998 C.ar      1 <0>        -0.0816
      4 C4          0.0240   -2.0689   -1.2101 C.ar      1 <0>        -0.1507
      5 C5          0.0391   -2.7702   -0.0132 C.ar      1 <0>         0.1292
      6 C6          0.0359   -2.0820    1.1914 C.ar      1 <0>        -0.2060
      7 C7          0.0229   -0.7006    1.1962 C.ar      1 <0>        -0.0806
      8 O1          0.0567   -4.1291   -0.0207 O.3       1 <0>        -0.3141
      9 C8          0.0716   -4.7847    1.2490 C.3       1 <0>         0.0611
     10 C9          0.0901   -6.3002    1.0402 C.3       1 <0>        -0.1137
     11 C10         0.1061   -7.0022    2.3995 C.3       1 <0>        -0.0982
     12 C11         0.1247   -8.5178    2.1907 C.3       1 <0>        -0.0961
     13 S1          0.1437   -9.3500    3.8024 S.3       1 <0>        -0.0511
     14 C12         0.1637  -11.0645    3.3966 C.ar      1 <0>         0.3444
     15 N1          0.1675  -11.4318    2.1230 N.ar      1 <0>        -0.6083
     16 C13         0.1831  -12.7135    1.8016 C.ar      1 <0>         0.4646
     17 O2          0.1871  -13.0840    0.4981 O.3       1 <0>        -0.6857
     18 C14         0.1962  -13.6944    2.8111 C.ar      1 <0>        -0.3073
     19 C15         0.1915  -13.2753    4.1172 C.ar      1 <0>         0.1667
     20 N2          0.1803  -11.9592    4.3657 N.ar      1 <0>        -0.5827
     21 C16         0.2051  -14.3617    5.1908 C.3       1 <0>         0.0013
     22 S2         -0.2590  -15.8552    4.2219 S.3       1 <0>        -0.3126
     23 C17         0.2147  -15.2018    2.5686 C.3       1 <0>         0.0333
     24 H1          1.0042    1.8801    0.0026 H         1 <0>         0.0664
     25 H2         -0.5455    1.8639   -0.8728 H         1 <0>         0.0639
     26 H3         -0.5286    1.8543    0.9071 H         1 <0>         0.0634
     27 H4         -0.0061   -0.1412   -2.1314 H         1 <0>         0.1272
     28 H5          0.0261   -2.6024   -2.1492 H         1 <0>         0.1306
     29 H6          0.0477   -2.6256    2.1245 H         1 <0>         0.1289
     30 H7          0.0248   -0.1643    2.1337 H         1 <0>         0.1232
     31 H8          0.9606   -4.4833    1.8030 H         1 <0>         0.0635
     32 H9         -0.8192   -4.5064    1.8121 H         1 <0>         0.0635
     33 H10        -0.7989   -6.6016    0.4861 H         1 <0>         0.0789
     34 H11         0.9809   -6.5786    0.4770 H         1 <0>         0.0788
     35 H12         0.9951   -6.7009    2.9536 H         1 <0>         0.0740
     36 H13        -0.7846   -6.7239    2.9627 H         1 <0>         0.0741
     37 H14        -0.7643   -8.8191    1.6367 H         1 <0>         0.0922
     38 H15         1.0155   -8.7961    1.6276 H         1 <0>         0.0922
     39 H16         1.2000  -14.4707    5.6226 H         1 <0>         0.1043
     40 H17        -0.5336  -14.1541    5.9649 H         1 <0>         0.1120
     41 H18        -0.5184  -15.4842    1.8131 H         1 <0>         0.1017
     42 H19         1.2122  -15.5392    2.2872 H         1 <0>         0.0886
@<TRIPOS>BOND
     1    1    2 1
     2    1   24 1
     3    1   25 1
     4    1   26 1
     5    2    7 ar
     6    2    3 ar
     7    3    4 ar
     8    3   27 1
     9    4    5 ar
    10    4   28 1
    11    5    6 ar
    12    5    8 1
    13    6    7 ar
    14    6   29 1
    15    7   30 1
    16    8    9 1
    17    9   10 1
    18    9   31 1
    19    9   32 1
    20   10   11 1
    21   10   33 1
    22   10   34 1
    23   11   12 1
    24   11   35 1
    25   11   36 1
    26   12   37 1
    27   12   38 1
    28   12   13 1
    29   13   14 1
    30   14   20 ar
    31   14   15 ar
    32   15   16 ar
    33   16   17 1
    34   16   18 ar
    35   18   23 1
    36   18   19 ar
    37   19   20 ar
    38   19   21 1
    39   21   22 1
    40   21   39 1
    41   21   40 1
    42   22   23 1
    43   23   41 1
    44   23   42 1
@<TRIPOS>MOLECULE
ZINC47361107
   45    47     0     0     0
SMALL
USER_CHARGES

@<TRIPOS>ATOM
      1 C1         -2.5238   -0.9232   -0.7870 C.3       1 <0>        -0.0918
      2 C2         -1.0896   -1.0536   -0.3429 C.2       1 <0>         0.0954
      3 C3         -0.0003   -0.8757   -1.1450 C.2       1 <0>        -0.1964
      4 C4          1.1843   -1.1005   -0.2965 C.ar      1 <0>        -0.0722
      5 C5          2.5579   -1.0671   -0.5243 C.ar      1 <0>        -0.0626
      6 C6          3.4275   -1.3327    0.5107 C.ar      1 <0>        -0.1514
      7 C7          2.9404   -1.6327    1.7747 C.ar      1 <0>        -0.1067
      8 C8          1.5841   -1.6697    2.0139 C.ar      1 <0>        -0.1341
      9 C9          0.6898   -1.4035    0.9821 C.ar      1 <0>         0.0915
     10 N1         -0.6876   -1.3594    0.9144 N.pl3     1 <0>        -0.5882
     11 H1         -1.2841   -1.5265    1.6608 H         1 <0>         0.4099
     12 C10        -0.0065   -0.5293   -2.5733 C.2       1 <0>         0.4817
     13 C11         0.1167    0.8761   -2.9897 C.2       1 <0>        -0.4240
     14 C12         0.3572    1.8942   -2.0118 C.1       1 <0>         0.3154
     15 N2          0.5481    2.7019   -1.2361 N.1       1 <0>        -0.5435
     16 C13         0.0018    1.2095   -4.3070 C.2       1 <0>         0.3470
     17 O1         -0.2239    0.2539   -5.2248 O.3       1 <0>        -0.6183
     18 C14         0.1280    2.6493   -4.7336 C.3       1 <0>        -0.1255
     19 C15         1.5690    2.9289   -5.1652 C.3       1 <0>        -0.0701
     20 C16         2.5002    2.7807   -3.9602 C.3       1 <0>        -0.1177
     21 C17         3.9412    3.0603   -4.3918 C.3       1 <0>        -0.1177
     22 C18         4.0416    4.4845   -4.9418 C.3       1 <0>        -0.1174
     23 C19         3.1104    4.6327   -6.1468 C.3       1 <0>        -0.1167
     24 C20         1.6694    4.3531   -5.7152 C.3       1 <0>        -0.1130
     25 O2         -0.1136   -1.4058   -3.4120 O.2       1 <0>        -0.4775
     26 H2         -2.8795    0.0851   -0.5751 H         1 <0>         0.0764
     27 H3         -2.5914   -1.1147   -1.8579 H         1 <0>         0.0904
     28 H4         -3.1378   -1.6456   -0.2493 H         1 <0>         0.0654
     29 H5          2.9395   -0.8345   -1.5075 H         1 <0>         0.1224
     30 H6          4.4932   -1.3076    0.3373 H         1 <0>         0.1194
     31 H7          3.6311   -1.8397    2.5788 H         1 <0>         0.1199
     32 H8          1.2155   -1.9050    3.0014 H         1 <0>         0.1142
     33 H9         -0.5452    2.8410   -5.5691 H         1 <0>         0.0690
     34 H10        -0.1341    3.2998   -3.8992 H         1 <0>         0.0630
     35 H11         1.8607    2.2191   -5.9392 H         1 <0>         0.0723
     36 H12         2.2085    3.4906   -3.1862 H         1 <0>         0.0600
     37 H13         2.4286    1.7661   -3.5684 H         1 <0>         0.0739
     38 H14         4.6045    2.9548   -3.5334 H         1 <0>         0.0558
     39 H15         4.2328    2.3505   -5.1659 H         1 <0>         0.0589
     40 H16         3.7499    5.1944   -4.1678 H         1 <0>         0.0578
     41 H17         5.0682    4.6837   -5.2493 H         1 <0>         0.0538
     42 H18         3.1820    5.6473   -6.5386 H         1 <0>         0.0547
     43 H19         3.4021    3.9229   -6.9208 H         1 <0>         0.0600
     44 H20         1.0061    4.4587   -6.5736 H         1 <0>         0.0586
     45 H21         1.3778    5.0629   -4.9411 H         1 <0>         0.0580
@<TRIPOS>BOND
     1    1    2 1
     2    1   26 1
     3    1   27 1
     4    1   28 1
     5    2   10 1
     6    2    3 2
     7    3    4 1
     8    3   12 1
     9    4    9 ar
    10    4    5 ar
    11    5    6 ar
    12    5   29 1
    13    6    7 ar
    14    6   30 1
    15    7    8 ar
    16    7   31 1
    17    8    9 ar
    18    8   32 1
    19    9   10 1
    20   10   11 1
    21   12   13 1
    22   12   25 2
    23   13   14 1
    24   13   16 2
    25   14   15 3
    26   16   17 1
    27   16   18 1
    28   18   19 1
    29   18   33 1
    30   18   34 1
    31   19   24 1
    32   19   20 1
    33   19   35 1
    34   20   21 1
    35   20   36 1
    36   20   37 1
    37   21   22 1
    38   21   38 1
    39   21   39 1
    40   22   23 1
    41   22   40 1
    42   22   41 1
    43   23   24 1
    44   23   42 1
    45   23   43 1
    46   24   44 1
    47   24   45 1
@<TRIPOS>MOLECULE
ZINC13496967
   35    36     0     0     0
SMALL
USER_CHARGES

@<TRIPOS>ATOM
      1 C1         -3.4792   -2.2001   -1.3255 C.3       1 <0>        -0.1146
      2 C2         -2.2409   -1.7854   -0.5734 C.ar      1 <0>        -0.0758
      3 C3         -1.4935   -0.7081   -1.0138 C.ar      1 <0>        -0.1126
      4 C4         -0.3570   -0.3241   -0.3263 C.ar      1 <0>        -0.1098
      5 C5          0.0356   -1.0158    0.8030 C.ar      1 <0>        -0.1269
      6 C6         -0.7126   -2.0978    1.2478 C.ar      1 <0>         0.1247
      7 C7         -1.8567   -2.4777    0.5579 C.ar      1 <0>        -0.0715
      8 N1         -0.3175   -2.8006    2.3909 N.pl3     1 <0>        -0.6250
      9 C8         -0.3749   -4.1470    2.4075 C.2       1 <0>         0.5483
     10 S1         -0.7737   -5.0045    0.9804 S.2       1 <0>        -0.5852
     11 N2         -0.1183   -4.8185    3.5476 N.pl3     1 <0>        -0.6145
     12 C9         -0.0995   -6.2193    3.5465 C.ar      1 <0>         0.1034
     13 C10         0.5049   -6.9058    2.5034 C.ar      1 <0>        -0.0258
     14 C11         0.5225   -8.2886    2.5049 C.ar      1 <0>        -0.0632
     15 C12        -0.0620   -8.9898    3.5448 C.ar      1 <0>        -0.0603
     16 C13        -0.6659   -8.3114    4.5872 C.ar      1 <0>        -0.1922
     17 C14        -0.6825   -6.9263    4.5956 C.ar      1 <0>         0.1317
     18 O1         -1.2718   -6.2580    5.6232 O.3       1 <0>        -0.3179
     19 C15        -1.8493   -7.0482    6.6645 C.3       1 <0>         0.0260
     20 Cl1         1.2791   -9.1466    1.1991 Cl        1 <0>        -0.0583
     21 H1         -4.3420   -1.6662   -0.9273 H         1 <0>         0.0699
     22 H2         -3.3597   -1.9607   -2.3822 H         1 <0>         0.0680
     23 H3         -3.6314   -3.2733   -1.2110 H         1 <0>         0.0705
     24 H4         -1.7982   -0.1659   -1.8967 H         1 <0>         0.1252
     25 H5          0.2246    0.5173   -0.6730 H         1 <0>         0.1283
     26 H6          0.9236   -0.7155    1.3394 H         1 <0>         0.1236
     27 H7         -2.4430   -3.3163    0.9036 H         1 <0>         0.1400
     28 H8         -0.0022   -2.3189    3.1715 H         1 <0>         0.4084
     29 H9          0.0533   -4.3318    4.3689 H         1 <0>         0.4125
     30 H10         0.9611   -6.3605    1.6904 H         1 <0>         0.1626
     31 H11        -0.0468  -10.0697    3.5420 H         1 <0>         0.1408
     32 H12        -1.1215   -8.8616    5.3972 H         1 <0>         0.1442
     33 H13        -1.0772   -7.6668    7.1219 H         1 <0>         0.0605
     34 H14        -2.2842   -6.3929    7.4191 H         1 <0>         0.1038
     35 H15        -2.6269   -7.6875    6.2466 H         1 <0>         0.0610
@<TRIPOS>BOND
     1    1    2 1
     2    1   21 1
     3    1   22 1
     4    1   23 1
     5    2    7 ar
     6    2    3 ar
     7    3    4 ar
     8    3   24 1
     9    4    5 ar
    10    4   25 1
    11    5    6 ar
    12    5   26 1
    13    6    7 ar
    14    6    8 1
    15    7   27 1
    16    8    9 1
    17    8   28 1
    18    9   10 2
    19    9   11 1
    20   11   12 1
    21   11   29 1
    22   12   17 ar
    23   12   13 ar
    24   13   14 ar
    25   13   30 1
    26   14   15 ar
    27   14   20 1
    28   15   16 ar
    29   15   31 1
    30   16   17 ar
    31   16   32 1
    32   17   18 1
    33   18   19 1
    34   19   33 1
    35   19   34 1
    36   19   35 1
@<TRIPOS>MOLECULE
ZINC06891232
   45    46     0     0     0
SMALL
USER_CHARGES
1-(3-chlorophenyl)-3-neopentyl-5-propyl-pyrazole-4-carboxylic acid
@<TRIPOS>ATOM
      1 C1         -3.1495    3.2626    1.4574 C.3       1 <0>        -0.1463
      2 C2         -2.1158    2.7153    2.4436 C.3       1 <0>        -0.1183
      3 C3         -1.1103    1.8386    1.6944 C.3       1 <0>        -0.0544
      4 C4         -0.0956    1.2947    2.6668 C.2       1 <0>         0.0814
      5 C5         -0.1373    0.0619    3.2887 C.2       1 <0>        -0.2088
      6 C6          1.0091   -0.0293    4.1113 C.2       1 <0>         0.1167
      7 N1          1.6865    1.0784    3.9850 N.2       1 <0>        -0.3018
      8 N2          1.0208    1.9178    3.0848 N.pl3     1 <0>        -0.3375
      9 C7          1.4439    3.1937    2.6884 C.ar      1 <0>         0.1919
     10 C8          1.3949    3.5580    1.3492 C.ar      1 <0>        -0.1288
     11 C9          1.8074    4.8177    0.9616 C.ar      1 <0>        -0.0864
     12 C10         2.2791    5.7130    1.9040 C.ar      1 <0>        -0.1222
     13 C11         2.3347    5.3516    3.2385 C.ar      1 <0>        -0.0171
     14 C12         1.9181    4.0936    3.6328 C.ar      1 <0>        -0.1081
     15 Cl1         2.9286    6.4781    4.4184 Cl        1 <0>        -0.0669
     16 C13         1.3832   -1.2014    4.9815 C.3       1 <0>        -0.0284
     17 C14         2.2500   -2.1751    4.1806 C.3       1 <0>        -0.0640
     18 C15         3.5199   -1.4612    3.7129 C.3       1 <0>        -0.1347
     19 C16         2.6298   -3.3651    5.0641 C.3       1 <0>        -0.1365
     20 C17         1.4671   -2.6726    2.9638 C.3       1 <0>        -0.1353
     21 C18        -1.1798   -0.9653    3.1249 C.2       1 <0>         0.5285
     22 O1         -1.0695   -1.8103    2.2585 O.co2     1 <0>        -0.6224
     23 H1         -3.6736    2.4331    0.9827 H         1 <0>         0.0579
     24 H2         -3.8658    3.8872    1.9911 H         1 <0>         0.0534
     25 H3         -2.6455    3.8575    0.6956 H         1 <0>         0.0495
     26 H4         -1.5916    3.5449    2.9183 H         1 <0>         0.0533
     27 H5         -2.6197    2.1205    3.2054 H         1 <0>         0.0777
     28 H6         -1.6350    1.0115    1.2162 H         1 <0>         0.0928
     29 H7         -0.6033    2.4345    0.9355 H         1 <0>         0.0713
     30 H8          1.0309    2.8579    0.6118 H         1 <0>         0.1388
     31 H9          1.7655    5.1024   -0.0794 H         1 <0>         0.1401
     32 H10         2.6050    6.6961    1.5978 H         1 <0>         0.1362
     33 H11         1.9618    3.8114    4.6744 H         1 <0>         0.1412
     34 H12         1.9409   -0.8469    5.8483 H         1 <0>         0.0722
     35 H13         0.4785   -1.7099    5.3147 H         1 <0>         0.0874
     36 H14         4.0776   -1.1068    4.5797 H         1 <0>         0.0488
     37 H15         4.1374   -2.1549    3.1423 H         1 <0>         0.0469
     38 H16         3.2493   -0.6135    3.0835 H         1 <0>         0.0562
     39 H17         1.7251   -3.8736    5.3972 H         1 <0>         0.0566
     40 H18         3.2473   -4.0587    4.4935 H         1 <0>         0.0529
     41 H19         3.1876   -3.0106    5.9309 H         1 <0>         0.0501
     42 H20         1.1965   -1.8248    2.3344 H         1 <0>         0.0710
     43 H21         2.0846   -3.3662    2.3932 H         1 <0>         0.0370
     44 H22         0.5624   -3.1811    3.2970 H         1 <0>         0.0643
     45 O2         -2.2562   -0.9681    3.9357 O.co2     1 <0>        -0.7562
@<TRIPOS>BOND
     1    1    2 1
     2    1   23 1
     3    1   24 1
     4    1   25 1
     5    2    3 1
     6    2   26 1
     7    2   27 1
     8    3    4 1
     9    3   28 1
    10    3   29 1
    11    4    8 1
    12    4    5 2
    13    5    6 1
    14    5   21 1
    15    6    7 2
    16    6   16 1
    17    7    8 1
    18    8    9 1
    19    9   14 ar
    20    9   10 ar
    21   10   11 ar
    22   10   30 1
    23   11   12 ar
    24   11   31 1
    25   12   13 ar
    26   12   32 1
    27   13   14 ar
    28   13   15 1
    29   14   33 1
    30   16   17 1
    31   16   34 1
    32   16   35 1
    33   17   18 1
    34   17   19 1
    35   17   20 1
    36   18   36 1
    37   18   37 1
    38   18   38 1
    39   19   39 1
    40   19   40 1
    41   19   41 1
    42   20   42 1
    43   20   43 1
    44   20   44 1
    45   21   22 2
    46   21   45 1
@<TRIPOS>MOLECULE
ZINC13337048
   36    38     0     0     0
SMALL
USER_CHARGES
3-[(N'E)-N'-[[5-(4-chlorophenyl)-2-thienyl]methylene]hydrazino]benzoic acid
@<TRIPOS>ATOM
      1 C1          1.1759    1.7806    0.0004 C.ar      1 <0>        -0.1081
      2 C2          1.1657    3.1609    0.0070 C.ar      1 <0>        -0.1086
      3 C3         -0.0486    3.8505    0.0218 C.ar      1 <0>        -0.0787
      4 C4         -1.2490    3.1398    0.0299 C.ar      1 <0>        -0.1346
      5 C5         -1.2281    1.7527    0.0174 C.ar      1 <0>         0.1750
      6 C6         -0.0126    1.0758    0.0080 C.ar      1 <0>        -0.1551
      7 N1         -2.4254    1.0368    0.0197 N.pl3     1 <0>        -0.5675
      8 N2         -2.4039   -0.3641    0.0125 N.2       1 <0>        -0.2074
      9 C7         -3.5210   -1.0320    0.0146 C.2       1 <0>         0.0889
     10 C8         -3.4985   -2.4974    0.0070 C.2       1 <0>        -0.0934
     11 C9         -4.5632   -3.3849    0.0135 C.2       1 <0>        -0.1396
     12 C10        -4.2972   -4.7296    0.0007 C.2       1 <0>        -0.1346
     13 C11        -2.9799   -5.1469   -0.0077 C.2       1 <0>        -0.1402
     14 S1         -2.0929   -3.5978   -0.0049 S.3       1 <0>         0.1346
     15 C12        -2.4431   -6.5228   -0.0170 C.ar      1 <0>         0.0089
     16 C13        -3.3134   -7.6150   -0.0124 C.ar      1 <0>        -0.0905
     17 C14        -2.8059   -8.8973   -0.0260 C.ar      1 <0>        -0.1044
     18 C15        -1.4364   -9.1031   -0.0336 C.ar      1 <0>        -0.0358
     19 C16        -0.5681   -8.0242   -0.0329 C.ar      1 <0>        -0.1018
     20 C17        -1.0631   -6.7370   -0.0247 C.ar      1 <0>        -0.0977
     21 Cl1        -0.8054  -10.7204   -0.0434 Cl        1 <0>        -0.0694
     22 C18        -0.0619    5.3279    0.0294 C.2       1 <0>         0.4898
     23 O1         -1.1192    5.9257    0.0423 O.co2     1 <0>        -0.6316
     24 H1          2.1163    1.2496   -0.0111 H         1 <0>         0.1196
     25 H2          2.0970    3.7078    0.0003 H         1 <0>         0.1310
     26 H3         -2.1913    3.6675    0.0414 H         1 <0>         0.1274
     27 H4          0.0021   -0.0041    0.0020 H         1 <0>         0.1238
     28 H5         -3.2727    1.5088    0.0262 H         1 <0>         0.3920
     29 H6         -4.4644   -0.5064    0.0219 H         1 <0>         0.1331
     30 H7         -5.5812   -3.0244    0.0255 H         1 <0>         0.1409
     31 H8         -5.1023   -5.4495    0.0013 H         1 <0>         0.1369
     32 H9         -4.3815   -7.4558   -0.0019 H         1 <0>         0.1367
     33 H10        -3.4778   -9.7428   -0.0269 H         1 <0>         0.1376
     34 H11         0.4989   -8.1913   -0.0385 H         1 <0>         0.1384
     35 H12        -0.3849   -5.8964   -0.0238 H         1 <0>         0.1350
     36 O2          1.0986    6.0120    0.0220 O.co2     1 <0>        -0.7509
@<TRIPOS>BOND
     1    1    6 ar
     2    1    2 ar
     3    1   24 1
     4    2    3 ar
     5    2   25 1
     6    3    4 ar
     7    3   22 1
     8    4    5 ar
     9    4   26 1
    10    5    6 ar
    11    5    7 1
    12    6   27 1
    13    7    8 1
    14    7   28 1
    15    8    9 2
    16    9   10 1
    17    9   29 1
    18   10   14 1
    19   10   11 2
    20   11   12 1
    21   11   30 1
    22   12   13 2
    23   12   31 1
    24   13   14 1
    25   13   15 1
    26   15   20 ar
    27   15   16 ar
    28   16   17 ar
    29   16   32 1
    30   17   18 ar
    31   17   33 1
    32   18   19 ar
    33   18   21 1
    34   19   20 ar
    35   19   34 1
    36   20   35 1
    37   22   23 2
    38   22   36 1
@<TRIPOS>MOLECULE
ZINC33639147
   32    33     0     0     0
SMALL
USER_CHARGES
2-[2,5-bis(trifluoromethyl)anilino]benzoic acid
@<TRIPOS>ATOM
      1 C1          2.3216    8.0450   -0.2852 C.ar      1 <0>        -0.1322
      2 C2          2.6489    7.2710   -1.3878 C.ar      1 <0>        -0.1179
      3 C3          2.6472    5.8943   -1.3005 C.ar      1 <0>        -0.1335
      4 C4          2.3060    5.2728   -0.1053 C.ar      1 <0>         0.1501
      5 C5          1.9740    6.0539    1.0134 C.ar      1 <0>        -0.1137
      6 C6          1.9857    7.4479    0.9096 C.ar      1 <0>        -0.0738
      7 C7          1.6153    5.4086    2.2879 C.2       1 <0>         0.4858
      8 O1          1.7170    4.2036    2.4087 O.co2     1 <0>        -0.6104
      9 O2          1.1742    6.1544    3.3202 O.co2     1 <0>        -0.7526
     10 N1          2.2989    3.8868   -0.0161 N.pl3     1 <0>        -0.6667
     11 C8          1.0878    3.1907   -0.0510 C.ar      1 <0>         0.3191
     12 C9         -0.1144    3.8863   -0.0867 C.ar      1 <0>        -0.1311
     13 C10        -1.3093    3.1952   -0.1216 C.ar      1 <0>        -0.1072
     14 C11        -1.3101    1.8121   -0.1269 C.ar      1 <0>        -0.1523
     15 C12        -0.1157    1.1167   -0.0857 C.ar      1 <0>        -0.0274
     16 C13         1.0831    1.8017   -0.0506 C.ar      1 <0>        -0.2454
     17 C14         2.3846    1.0429   -0.0125 C.3       1 <0>         0.5134
     18 F1          2.1235   -0.3315   -0.0201 F         1 <0>        -0.1797
     19 F2          3.1527    1.3778   -1.1328 F         1 <0>        -0.1822
     20 F3          3.0859    1.3780    1.1507 F         1 <0>        -0.1657
     21 C15        -2.6137    3.9488   -0.1603 C.3       1 <0>         0.5071
     22 F4         -2.9786    4.1815   -1.4907 F         1 <0>        -0.1785
     23 F5         -3.6078    3.1931    0.4705 F         1 <0>        -0.1763
     24 F6         -2.4658    5.1715    0.5033 F         1 <0>        -0.1691
     25 H1          2.3305    9.1221   -0.3635 H         1 <0>         0.1200
     26 H2          2.9112    7.7491   -2.3200 H         1 <0>         0.1200
     27 H3          2.9078    5.2987   -2.1630 H         1 <0>         0.1213
     28 H4          1.7320    8.0560    1.7653 H         1 <0>         0.1344
     29 H5          3.2466    3.3371    0.0820 H         1 <0>         0.4264
     30 H6         -0.1143    4.9663   -0.0875 H         1 <0>         0.1384
     31 H7         -2.2460    1.2740   -0.1587 H         1 <0>         0.1373
     32 H8         -0.1201    0.0367   -0.0854 H         1 <0>         0.1424
@<TRIPOS>BOND
     1    1    6 ar
     2    1    2 ar
     3    1   25 1
     4    2    3 ar
     5    2   26 1
     6    3    4 ar
     7    3   27 1
     8    4    5 ar
     9    4   10 1
    10    5    6 ar
    11    5    7 1
    12    6   28 1
    13    7    8 2
    14    7    9 1
    15   10   11 1
    16   10   29 1
    17   11   16 ar
    18   11   12 ar
    19   12   13 ar
    20   12   30 1
    21   13   14 ar
    22   13   21 1
    23   14   15 ar
    24   14   31 1
    25   15   16 ar
    26   15   32 1
    27   16   17 1
    28   17   18 1
    29   17   19 1
    30   17   20 1
    31   21   22 1
    32   21   23 1
    33   21   24 1
@<TRIPOS>MOLECULE
ZINC33929813
   47    50     0     0     0
SMALL
USER_CHARGES

@<TRIPOS>ATOM
      1 C1          0.3686   -2.3443    0.9055 C.3       1 <0>        -0.1348
      2 C2          0.2853   -0.9268    0.3359 C.3       1 <0>        -0.0644
      3 C3          0.9353   -0.8926   -1.0234 C.2       1 <0>         0.1061
      4 C4          0.3022   -1.1030   -2.2339 C.2       1 <0>        -0.2490
      5 C5          1.3352   -0.9701   -3.2683 C.2       1 <0>         0.1392
      6 N1          2.4640   -0.7027   -2.6513 N.2       1 <0>        -0.2977
      7 N2          2.2316   -0.6466   -1.2743 N.pl3     1 <0>        -0.3380
      8 C6          3.2044   -0.3782   -0.3026 C.ar      1 <0>         0.1700
      9 C7          2.9351    0.5197    0.7219 C.ar      1 <0>        -0.1296
     10 C8          3.8961    0.7819    1.6787 C.ar      1 <0>        -0.1015
     11 C9          5.1254    0.1517    1.6169 C.ar      1 <0>        -0.1299
     12 C10         5.3967   -0.7426    0.5976 C.ar      1 <0>        -0.1045
     13 C11         4.4378   -1.0137   -0.3586 C.ar      1 <0>        -0.1144
     14 C12         1.1417   -1.1112   -4.7305 C.ar      1 <0>         0.0104
     15 C13         0.0457   -0.5103   -5.3504 C.ar      1 <0>        -0.0304
     16 C14        -0.1339   -0.6417   -6.7096 C.ar      1 <0>        -0.1140
     17 C15         0.7797   -1.3752   -7.4662 C.ar      1 <0>        -0.0552
     18 C16         1.8751   -1.9763   -6.8467 C.ar      1 <0>        -0.1223
     19 C17         2.0586   -1.8401   -5.4885 C.ar      1 <0>        -0.0961
     20 C18         0.5860   -1.5164   -8.9297 C.ar      1 <0>        -0.0279
     21 C19        -0.5049   -0.9124   -9.5525 C.ar      1 <0>        -0.1135
     22 C20        -0.6798   -1.0468  -10.9148 C.ar      1 <0>        -0.1181
     23 C21         0.2250   -1.7793  -11.6621 C.ar      1 <0>        -0.1301
     24 C22         1.3095   -2.3810  -11.0493 C.ar      1 <0>        -0.1198
     25 C23         1.4974   -2.2489   -9.6885 C.ar      1 <0>        -0.1162
     26 C24        -1.1204   -1.4003   -2.4434 C.2       1 <0>         0.5517
     27 O1         -1.8951   -1.3831   -1.4961 O.co2     1 <0>        -0.6889
     28 O2         -1.5314   -1.6652   -3.5653 O.co2     1 <0>        -0.6782
     29 H1         -0.2212   -3.0200    0.2861 H         1 <0>         0.0654
     30 H2          1.4080   -2.6724    0.9130 H         1 <0>         0.0400
     31 H3         -0.0217   -2.3504    1.9232 H         1 <0>         0.0575
     32 H4         -0.7602   -0.6321    0.2461 H         1 <0>         0.1175
     33 H5          0.8015   -0.2363    1.0029 H         1 <0>         0.0638
     34 H6          1.9755    1.0127    0.7703 H         1 <0>         0.1327
     35 H7          3.6873    1.4801    2.4757 H         1 <0>         0.1293
     36 H8          5.8753    0.3586    2.3660 H         1 <0>         0.1247
     37 H9          6.3580   -1.2327    0.5516 H         1 <0>         0.1274
     38 H10         4.6485   -1.7159   -1.1517 H         1 <0>         0.1287
     39 H11        -0.6620    0.0574   -4.7646 H         1 <0>         0.1351
     40 H12        -0.9824   -0.1769   -7.1895 H         1 <0>         0.1237
     41 H13         2.5820   -2.5448   -7.4327 H         1 <0>         0.1209
     42 H14         2.9095   -2.3016   -5.0095 H         1 <0>         0.1197
     43 H15        -1.2121   -0.3406   -8.9701 H         1 <0>         0.1276
     44 H16        -1.5249   -0.5795  -11.3984 H         1 <0>         0.1210
     45 H17         0.0840   -1.8821  -12.7279 H         1 <0>         0.1178
     46 H18         2.0127   -2.9517  -11.6377 H         1 <0>         0.1198
     47 H19         2.3469   -2.7153   -9.2118 H         1 <0>         0.1245
@<TRIPOS>BOND
     1    1    2 1
     2    1   29 1
     3    1   30 1
     4    1   31 1
     5    2    3 1
     6    2   32 1
     7    2   33 1
     8    3    7 1
     9    3    4 2
    10    4    5 1
    11    4   26 1
    12    5    6 2
    13    5   14 1
    14    6    7 1
    15    7    8 1
    16    8   13 ar
    17    8    9 ar
    18    9   10 ar
    19    9   34 1
    20   10   11 ar
    21   10   35 1
    22   11   12 ar
    23   11   36 1
    24   12   13 ar
    25   12   37 1
    26   13   38 1
    27   14   19 ar
    28   14   15 ar
    29   15   16 ar
    30   15   39 1
    31   16   17 ar
    32   16   40 1
    33   17   18 ar
    34   17   20 1
    35   18   19 ar
    36   18   41 1
    37   19   42 1
    38   20   25 ar
    39   20   21 ar
    40   21   22 ar
    41   21   43 1
    42   22   23 ar
    43   22   44 1
    44   23   24 ar
    45   23   45 1
    46   24   25 ar
    47   24   46 1
    48   25   47 1
    49   26   27 2
    50   26   28 1
@<TRIPOS>MOLECULE
ZINC04521408
   53    52     0     0     0
SMALL
USER_CHARGES

@<TRIPOS>ATOM
      1 C1         -0.8472    0.4684    0.3369 C.3       1 <0>        -0.1936
      2 C2         -0.7910   -0.8837   -0.3770 C.3       1 <0>        -0.0775
      3 H1         -1.6752   -1.0007   -1.0037 H         1 <0>         0.1029
      4 C3         -0.7493   -2.0070    0.6609 C.3       1 <0>        -0.0983
      5 C4         -2.1685   -2.3024    1.1501 C.3       1 <0>        -0.0696
      6 C5         -3.0180   -2.8014   -0.0205 C.3       1 <0>        -0.1487
      7 C6         -2.1196   -3.3763    2.2388 C.3       1 <0>        -0.1386
      8 C7         -2.7874   -1.0250    1.7212 C.3       1 <0>        -0.1476
      9 C8          0.4644   -0.9481   -1.2491 C.3       1 <0>        -0.7366
     10 P1          0.2224    0.0738   -2.7391 P.3       1 <0>         2.4275
     11 O1         -0.0293    1.4765   -2.3398 O.2       1 <0>        -0.9804
     12 C9          1.7183   -0.0030   -3.7783 C.3       1 <0>        -0.7377
     13 C10         1.5152    0.8547   -5.0288 C.3       1 <0>        -0.0793
     14 H2          0.5275    0.6597   -5.4467 H         1 <0>         0.1054
     15 C11         1.6282    2.3344   -4.6563 C.3       1 <0>        -0.1805
     16 C12         2.5853    0.5066   -6.0654 C.3       1 <0>        -0.0984
     17 C13         2.2947    1.2530   -7.3690 C.3       1 <0>        -0.0678
     18 C14         2.7630    2.7039   -7.2412 C.3       1 <0>        -0.1649
     19 C15         3.0397    0.5762   -8.5212 C.3       1 <0>        -0.1394
     20 C16         0.7906    1.2253   -7.6480 C.3       1 <0>        -0.1496
     21 S1         -1.4381   -0.6575   -3.8356 S.3       1 <0>        -1.4256
     22 H3         -0.0219    0.5399    1.0452 H         1 <0>         0.0397
     23 H4         -0.7667    1.2704   -0.3970 H         1 <0>         0.1006
     24 H5         -1.7932    0.5583    0.8709 H         1 <0>         0.0728
     25 H6         -0.3268   -2.9042    0.2085 H         1 <0>         0.0528
     26 H7         -0.1309   -1.6996    1.5043 H         1 <0>         0.0539
     27 H8         -2.5771   -3.7114   -0.4274 H         1 <0>         0.0502
     28 H9         -4.0291   -3.0118    0.3280 H         1 <0>         0.0492
     29 H10        -3.0529   -2.0363   -0.7962 H         1 <0>         0.0758
     30 H11        -1.5144   -3.0208    3.0728 H         1 <0>         0.0493
     31 H12        -3.1307   -3.5867    2.5873 H         1 <0>         0.0523
     32 H13        -1.6787   -4.2863    1.8320 H         1 <0>         0.0499
     33 H14        -3.0627   -0.3579    0.9043 H         1 <0>         0.0720
     34 H15        -3.6765   -1.2786    2.2985 H         1 <0>         0.0467
     35 H16        -2.0638   -0.5283    2.3677 H         1 <0>         0.0551
     36 H17         1.3181   -0.5721   -0.6853 H         1 <0>         0.0909
     37 H18         0.6498   -1.9812   -1.5432 H         1 <0>         0.0862
     38 H19         2.5720    0.3730   -3.2145 H         1 <0>         0.0912
     39 H20         1.9037   -1.0361   -4.0724 H         1 <0>         0.0863
     40 H21         1.1312    2.9390   -5.4149 H         1 <0>         0.0650
     41 H22         1.1540    2.5028   -3.6894 H         1 <0>         0.1002
     42 H23         2.6798    2.6154   -4.5992 H         1 <0>         0.0450
     43 H24         3.5651    0.8008   -5.6890 H         1 <0>         0.0528
     44 H25         2.5751   -0.5673   -6.2516 H         1 <0>         0.0543
     45 H26         3.8439    2.7259   -7.1022 H         1 <0>         0.0457
     46 H27         2.5020    3.2511   -8.1471 H         1 <0>         0.0477
     47 H28         2.2768    3.1685   -6.3834 H         1 <0>         0.0841
     48 H29         2.7060   -0.4575   -8.6122 H         1 <0>         0.0523
     49 H30         2.8326    1.1079   -9.4499 H         1 <0>         0.0516
     50 H31         4.1112    0.5959   -8.3224 H         1 <0>         0.0479
     51 H32         0.2598    1.7075   -6.8271 H         1 <0>         0.0718
     52 H33         0.5835    1.7570   -8.5767 H         1 <0>         0.0475
     53 H34         0.4569    0.1916   -7.7390 H         1 <0>         0.0575
@<TRIPOS>BOND
     1    1    2 1
     2    1   22 1
     3    1   23 1
     4    1   24 1
     5    2    3 1
     6    2    4 1
     7    2    9 1
     8    4    5 1
     9    4   25 1
    10    4   26 1
    11    5    6 1
    12    5    7 1
    13    5    8 1
    14    6   27 1
    15    6   28 1
    16    6   29 1
    17    7   30 1
    18    7   31 1
    19    7   32 1
    20    8   33 1
    21    8   34 1
    22    8   35 1
    23    9   10 1
    24    9   36 1
    25    9   37 1
    26   10   11 2
    27   10   12 1
    28   10   21 1
    29   12   13 1
    30   12   38 1
    31   12   39 1
    32   13   14 1
    33   13   15 1
    34   13   16 1
    35   15   40 1
    36   15   41 1
    37   15   42 1
    38   16   17 1
    39   16   43 1
    40   16   44 1
    41   17   18 1
    42   17   19 1
    43   17   20 1
    44   18   45 1
    45   18   46 1
    46   18   47 1
    47   19   48 1
    48   19   49 1
    49   19   50 1
    50   20   51 1
    51   20   52 1
    52   20   53 1
@<TRIPOS>MOLECULE
ZINC13712956
   49    50     0     0     0
SMALL
USER_CHARGES
(2R)-N-cyclopentyl-2-(methylsulfonyl-(p-tolyl)amino)butanamide
@<TRIPOS>ATOM
      1 C1         -1.5727   -1.2874    1.4313 C.3       1 <0>        -0.1682
      2 C2         -0.8678   -1.7769    0.1647 C.3       1 <0>        -0.1399
      3 C3         -0.8626   -0.6594   -0.8804 C.3       1 <0>         0.1302
      4 H1         -1.8825   -0.3128   -1.0467 H         1 <0>         0.1247
      5 C4         -0.2931   -1.1836   -2.1735 C.2       1 <0>         0.5065
      6 O1          0.8978   -1.1032   -2.3883 O.2       1 <0>        -0.5102
      7 N1         -1.1072   -1.7417   -3.0912 N.am      1 <0>        -0.7237
      8 C5         -0.5536   -2.2512   -4.3482 C.3       1 <0>         0.1410
      9 C6         -0.5018   -1.1227   -5.3987 C.3       1 <0>        -0.1362
     10 C7         -0.8556   -1.8280   -6.7316 C.3       1 <0>        -0.1250
     11 C8         -1.9440   -2.8432   -6.3027 C.3       1 <0>        -0.1248
     12 C9         -1.4705   -3.3451   -4.9229 C.3       1 <0>        -0.1311
     13 N2         -0.0404    0.4541   -0.4005 N.pl3     1 <0>        -0.9314
     14 C10         1.3118    0.2516   -0.1153 C.ar      1 <0>         0.1354
     15 C11         2.2866    0.8614   -0.8948 C.ar      1 <0>        -0.0602
     16 C12         3.6227    0.6629   -0.6071 C.ar      1 <0>        -0.1141
     17 C13         3.9907   -0.1503    0.4490 C.ar      1 <0>        -0.0774
     18 C14         3.0230   -0.7631    1.2238 C.ar      1 <0>        -0.1209
     19 C15         1.6850   -0.5647    0.9449 C.ar      1 <0>        -0.1216
     20 C16         5.4497   -0.3689    0.7567 C.3       1 <0>        -0.1165
     21 S1         -0.7143    1.9529   -0.1962 S.o2      1 <0>         2.5965
     22 O2          0.3496    2.8643   -0.4345 O.2       1 <0>        -0.9369
     23 O3         -1.8655    1.9495   -1.0292 O.2       1 <0>        -0.9502
     24 C17        -1.2060    2.0090    1.5490 C.3       1 <0>        -0.6747
     25 H2         -1.5764   -2.0835    2.1758 H         1 <0>         0.0700
     26 H3         -1.0449   -0.4205    1.8289 H         1 <0>         0.0592
     27 H4         -2.5990   -1.0094    1.1915 H         1 <0>         0.0628
     28 H5         -1.3956   -2.6438   -0.2330 H         1 <0>         0.0831
     29 H6          0.1585   -2.0549    0.4044 H         1 <0>         0.0913
     30 H7         -2.0597   -1.8060   -2.9194 H         1 <0>         0.4000
     31 H8          0.4460   -2.6521   -4.1803 H         1 <0>         0.0918
     32 H9         -1.2376   -0.3524   -5.1677 H         1 <0>         0.0709
     33 H10         0.4987   -0.6932   -5.4483 H         1 <0>         0.0705
     34 H11         0.0143   -2.3433   -7.1387 H         1 <0>         0.0694
     35 H12        -1.2554   -1.1144   -7.4520 H         1 <0>         0.0694
     36 H13        -1.9959   -3.6692   -7.0119 H         1 <0>         0.0689
     37 H14        -2.9127   -2.3508   -6.2176 H         1 <0>         0.0676
     38 H15        -0.9157   -4.2767   -5.0348 H         1 <0>         0.0749
     39 H16        -2.3270   -3.4975   -4.2662 H         1 <0>         0.0712
     40 H17         1.9999    1.4931   -1.7226 H         1 <0>         0.1251
     41 H18         4.3810    1.1399   -1.2103 H         1 <0>         0.1245
     42 H19         3.3138   -1.3973    2.0482 H         1 <0>         0.1237
     43 H20         0.9297   -1.0433    1.5506 H         1 <0>         0.1310
     44 H21         5.8124   -1.2341    0.2019 H         1 <0>         0.0710
     45 H22         6.0186    0.5141    0.4655 H         1 <0>         0.0671
     46 H23         5.5733   -0.5446    1.8253 H         1 <0>         0.0662
     47 H24        -0.3560    1.7374    2.1749 H         1 <0>         0.1331
     48 H25        -1.5357    3.0168    1.8013 H         1 <0>         0.1337
     49 H26        -2.0218    1.3065    1.7193 H         1 <0>         0.1324
@<TRIPOS>BOND
     1    1    2 1
     2    1   25 1
     3    1   26 1
     4    1   27 1
     5    2    3 1
     6    2   28 1
     7    2   29 1
     8    3    4 1
     9    3    5 1
    10    3   13 1
    11    5    6 2
    12    5    7 am
    13    7    8 1
    14    7   30 1
    15    8   12 1
    16    8    9 1
    17    8   31 1
    18    9   10 1
    19    9   32 1
    20    9   33 1
    21   10   11 1
    22   10   34 1
    23   10   35 1
    24   11   12 1
    25   11   36 1
    26   11   37 1
    27   12   38 1
    28   12   39 1
    29   13   14 1
    30   13   21 1
    31   14   19 ar
    32   14   15 ar
    33   15   16 ar
    34   15   40 1
    35   16   17 ar
    36   16   41 1
    37   17   18 ar
    38   17   20 1
    39   18   19 ar
    40   18   42 1
    41   19   43 1
    42   20   44 1
    43   20   45 1
    44   20   46 1
    45   21   22 2
    46   21   23 2
    47   21   24 1
    48   24   47 1
    49   24   48 1
    50   24   49 1
@<TRIPOS>MOLECULE
ZINC32885268
   47    49     0     0     0
SMALL
USER_CHARGES
(2S)-N-cyclopentyl-2-[1-(3-methoxyphenyl)imidazol-2-yl]sulfanyl-propanamide
@<TRIPOS>ATOM
      1 C1          5.2121    4.2502    3.3568 C.3       1 <0>        -0.1476
      2 C2          5.1879    2.8471    2.7474 C.3       1 <0>        -0.1117
      3 H1          6.0416    2.8231    2.0542 H         1 <0>         0.1213
      4 C3          5.5503    1.8345    3.8030 C.2       1 <0>         0.5311
      5 O1          4.6791    1.2001    4.3592 O.2       1 <0>        -0.5296
      6 N1          6.8426    1.6340    4.1290 N.am      1 <0>        -0.7324
      7 C4          7.1950    0.6497    5.1553 C.3       1 <0>         0.1393
      8 C5          7.1715    1.3087    6.5498 C.3       1 <0>        -0.1375
      9 C6          8.3531    0.6479    7.3022 C.3       1 <0>        -0.1252
     10 C7          9.4309    0.5164    6.1976 C.3       1 <0>        -0.1195
     11 C8          8.6315    0.1459    4.9313 C.3       1 <0>        -0.1257
     12 S1          3.5293    2.4924    2.1153 S.3       1 <0>         0.0814
     13 C9          3.4277    3.6946    0.8312 C.2       1 <0>         0.1852
     14 N2          4.3642    4.5566    0.5098 N.2       1 <0>        -0.4809
     15 C10         3.9370    5.3184   -0.5114 C.2       1 <0>        -0.0122
     16 C11         2.6974    4.9220   -0.8469 C.2       1 <0>        -0.0379
     17 N3          2.3639    3.8862   -0.0006 N.pl3     1 <0>        -0.4007
     18 C12         1.1586    3.1702    0.0076 C.ar      1 <0>         0.1528
     19 C13         1.1749    1.7814    0.0004 C.ar      1 <0>        -0.1480
     20 C14        -0.0126    1.0758    0.0080 C.ar      1 <0>        -0.0572
     21 C15        -1.2195    1.7492    0.0173 C.ar      1 <0>        -0.1998
     22 C16        -1.2415    3.1366    0.0298 C.ar      1 <0>         0.1462
     23 C17        -0.0516    3.8479    0.0223 C.ar      1 <0>        -0.1461
     24 O2         -2.4288    3.7977    0.0443 O.3       1 <0>        -0.3128
     25 C18        -3.6150    3.0008    0.0513 C.3       1 <0>         0.0217
     26 H2          4.9476    4.9892    2.5862 H         1 <0>         0.0939
     27 H3          6.2201    4.4658    3.7409 H         1 <0>         0.0675
     28 H4          4.4861    4.3044    4.1814 H         1 <0>         0.0655
     29 H5          7.6327    2.2094    3.6245 H         1 <0>         0.4197
     30 H6          6.4488   -0.1521    5.0538 H         1 <0>         0.0917
     31 H7          7.3054    2.3954    6.4441 H         1 <0>         0.0705
     32 H8          6.2063    1.1038    7.0360 H         1 <0>         0.0699
     33 H9          8.6705    1.2988    8.1302 H         1 <0>         0.0689
     34 H10         8.0342   -0.3257    7.7027 H         1 <0>         0.0696
     35 H11         9.9603    1.4741    6.0861 H         1 <0>         0.0686
     36 H12        10.1486   -0.2689    6.4772 H         1 <0>         0.0697
     37 H13         8.6186   -0.9436    4.7804 H         1 <0>         0.0765
     38 H14         9.0569    0.6342    4.0421 H         1 <0>         0.0735
     39 H15         4.4948    6.1144   -0.9821 H         1 <0>         0.1790
     40 H16         2.0802    5.3360   -1.6306 H         1 <0>         0.1815
     41 H17         2.1166    1.2529   -0.0107 H         1 <0>         0.1366
     42 H18         0.0021   -0.0041    0.0020 H         1 <0>         0.1398
     43 H19        -2.1464    1.1950    0.0191 H         1 <0>         0.1378
     44 H20        -0.0668    4.9278    0.0275 H         1 <0>         0.1393
     45 H21        -4.4976    3.6572    0.0629 H         1 <0>         0.1061
     46 H22        -3.6218    2.3613    0.9463 H         1 <0>         0.0604
     47 H23        -3.6386    2.3705   -0.8499 H         1 <0>         0.0598
@<TRIPOS>BOND
     1    1    2 1
     2    1   26 1
     3    1   27 1
     4    1   28 1
     5    2    3 1
     6    2    4 1
     7    2   12 1
     8    4    5 2
     9    4    6 am
    10    6    7 1
    11    6   29 1
    12    7   11 1
    13    7    8 1
    14    7   30 1
    15    8    9 1
    16    8   31 1
    17    8   32 1
    18    9   10 1
    19    9   33 1
    20    9   34 1
    21   10   11 1
    22   10   35 1
    23   10   36 1
    24   11   37 1
    25   11   38 1
    26   12   13 1
    27   13   17 1
    28   13   14 2
    29   14   15 1
    30   15   16 2
    31   15   39 1
    32   16   17 1
    33   16   40 1
    34   17   18 1
    35   18   23 ar
    36   18   19 ar
    37   19   20 ar
    38   19   41 1
    39   20   21 ar
    40   20   42 1
    41   21   22 ar
    42   21   43 1
    43   22   23 ar
    44   22   24 1
    45   23   44 1
    46   24   25 1
    47   25   45 1
    48   25   46 1
    49   25   47 1
@<TRIPOS>MOLECULE
ZINC43775383
   44    46     0     0     0
SMALL
USER_CHARGES

@<TRIPOS>ATOM
      1 C1         -0.0167    1.3781    0.0096 C.ar      1 <0>        -0.1106
      2 C2          1.1709    2.0855    0.0021 C.ar      1 <0>        -0.1230
      3 C3          2.3773    1.4107   -0.0130 C.ar      1 <0>        -0.0944
      4 C4          2.3960    0.0285   -0.0201 C.ar      1 <0>        -0.0895
      5 C5          1.2084   -0.6789   -0.0117 C.ar      1 <0>        -0.0946
      6 C6          0.0021   -0.0041    0.0020 C.ar      1 <0>        -0.1241
      7 C7          3.7112   -0.7071   -0.0376 C.3       1 <0>         0.0953
      8 O1          4.1410   -0.9464    1.3041 O.3       1 <0>        -0.2738
      9 C8          5.3181   -1.6047    1.4665 C.ar      1 <0>         0.1542
     10 C9          6.0480   -2.0072    0.3604 C.ar      1 <0>        -0.2152
     11 C10         7.2460   -2.6767    0.5266 C.ar      1 <0>        -0.0706
     12 C11         7.7248   -2.9500    1.7963 C.ar      1 <0>        -0.1590
     13 C12         7.0101   -2.5565    2.9085 C.ar      1 <0>        -0.0610
     14 C13         5.8017   -1.8741    2.7537 C.ar      1 <0>        -0.0719
     15 C14         5.0359   -1.4447    3.9382 C.2       1 <0>         0.0571
     16 N1          3.9108   -0.8155    3.7902 N.2       1 <0>        -0.1896
     17 N2          3.1831   -0.4075    4.9157 N.pl3     1 <0>        -0.6523
     18 C15         1.9128    0.3029    4.7487 C.3       1 <0>         0.1929
     19 H1          1.9336    0.8669    3.8162 H         1 <0>         0.1058
     20 C16         0.7608   -0.7148    4.7041 C.3       1 <0>        -0.1463
     21 C17        -0.5786    0.0636    4.8432 C.3       1 <0>        -0.5702
     22 S1         -0.1186    1.2988    6.1306 S.o2      1 <0>         2.3758
     23 O2         -0.4514    0.7786    7.4103 O.2       1 <0>        -0.9319
     24 O3         -0.6117    2.5744    5.7445 O.2       1 <0>        -0.9323
     25 C18         1.7091    1.2770    5.9340 C.3       1 <0>        -0.5993
     26 H2         -0.9591    1.9053    0.0259 H         1 <0>         0.1245
     27 H3          1.1563    3.1654    0.0076 H         1 <0>         0.1251
     28 H4          3.3051    1.9634   -0.0196 H         1 <0>         0.1223
     29 H5          1.2231   -1.7588   -0.0176 H         1 <0>         0.1218
     30 H6         -0.9258   -0.5567    0.0082 H         1 <0>         0.1241
     31 H7          3.5884   -1.6586   -0.5549 H         1 <0>         0.0693
     32 H8          4.4573   -0.1052   -0.5563 H         1 <0>         0.0694
     33 H9          5.6804   -1.7982   -0.6334 H         1 <0>         0.1290
     34 H10         7.8114   -2.9885   -0.3392 H         1 <0>         0.1257
     35 H11         8.6616   -3.4738    1.9166 H         1 <0>         0.1273
     36 H12         7.3868   -2.7718    3.8975 H         1 <0>         0.1324
     37 H13         5.4114   -1.6539    4.9289 H         1 <0>         0.1113
     38 H14         3.5203   -0.5954    5.8056 H         1 <0>         0.3776
     39 H15         0.7788   -1.2498    3.7546 H         1 <0>         0.1046
     40 H16         0.8626   -1.4223    5.5269 H         1 <0>         0.0879
     41 H17        -0.8498    0.5520    3.9072 H         1 <0>         0.1418
     42 H18        -1.3794   -0.5889    5.1913 H         1 <0>         0.1438
     43 H19         2.1903    0.8957    6.8347 H         1 <0>         0.1428
     44 H20         2.0822    2.2707    5.6862 H         1 <0>         0.1476
@<TRIPOS>BOND
     1    1    6 ar
     2    1    2 ar
     3    1   26 1
     4    2    3 ar
     5    2   27 1
     6    3    4 ar
     7    3   28 1
     8    4    5 ar
     9    4    7 1
    10    5    6 ar
    11    5   29 1
    12    6   30 1
    13    7    8 1
    14    7   31 1
    15    7   32 1
    16    8    9 1
    17    9   14 ar
    18    9   10 ar
    19   10   11 ar
    20   10   33 1
    21   11   12 ar
    22   11   34 1
    23   12   13 ar
    24   12   35 1
    25   13   14 ar
    26   13   36 1
    27   14   15 1
    28   15   16 2
    29   15   37 1
    30   16   17 1
    31   17   18 1
    32   17   38 1
    33   18   19 1
    34   18   25 1
    35   18   20 1
    36   20   21 1
    37   20   39 1
    38   20   40 1
    39   21   22 1
    40   21   41 1
    41   21   42 1
    42   22   23 2
    43   22   24 2
    44   22   25 1
    45   25   43 1
    46   25   44 1
@<TRIPOS>MOLECULE
ZINC56945247
   50    53     0     0     0
SMALL
USER_CHARGES

@<TRIPOS>ATOM
      1 C1          5.1025    2.8929   -3.9548 C.ar      1 <0>        -0.1808
      2 C2          5.5275    1.6261   -4.3108 C.ar      1 <0>        -0.0709
      3 C3          5.5171    0.6056   -3.3803 C.ar      1 <0>        -0.2008
      4 C4          5.0789    0.8529   -2.0855 C.ar      1 <0>         0.2205
      5 C5          4.6526    2.1267   -1.7312 C.ar      1 <0>        -0.2007
      6 C6          4.6656    3.1425   -2.6667 C.ar      1 <0>        -0.0712
      7 N1          5.0665   -0.1769   -1.1420 N.pl3     1 <0>        -0.6303
      8 C7          5.3907   -1.5586   -1.5284 C.3       1 <0>         0.1283
      9 C8          6.4611   -2.0933   -0.5709 C.3       1 <0>         0.0272
     10 N2          6.0013   -1.9273    0.8144 N.3       1 <0>        -0.5225
     11 C9          5.8253   -0.5083    1.1510 C.3       1 <0>         0.0398
     12 C10         4.7349    0.0925    0.2653 C.3       1 <0>         0.1280
     13 C11         6.9197   -2.5817    1.7558 C.3       1 <0>         0.1580
     14 H1          6.5496   -2.4534    2.7730 H         1 <0>         0.1200
     15 C12         7.0070   -4.0739    1.4293 C.3       1 <0>         0.1284
     16 N3          5.6623   -4.6552    1.4383 N.am      1 <0>        -0.7158
     17 C13         5.5012   -5.9832    1.2742 C.2       1 <0>         0.5426
     18 O1          6.4694   -6.6969    1.1190 O.2       1 <0>        -0.5415
     19 C14         4.1180   -6.5812    1.2835 C.3       1 <0>        -0.1955
     20 C15         3.7428   -7.4752    2.4670 C.3       1 <0>        -0.1521
     21 C16         4.0013   -8.0947    1.0922 C.3       1 <0>        -0.1477
     22 C17         8.2876   -1.9606    1.6369 C.2       1 <0>        -0.0511
     23 C18         9.0626   -1.5624    2.6618 C.2       1 <0>        -0.1911
     24 C19        10.2507   -1.0424    2.0989 C.2       1 <0>        -0.2132
     25 C20        10.1308   -1.1539    0.7638 C.2       1 <0>        -0.0369
     26 O2          8.9422   -1.7160    0.4900 O.3       1 <0>        -0.1672
     27 H2          5.1159    3.6902   -4.6831 H         1 <0>         0.1174
     28 H3          5.8678    1.4344   -5.3177 H         1 <0>         0.1198
     29 H4          5.8488   -0.3836   -3.6590 H         1 <0>         0.1205
     30 H5          4.3110    2.3222   -0.7255 H         1 <0>         0.1204
     31 H6          4.3343    4.1331   -2.3920 H         1 <0>         0.1199
     32 H7          4.4961   -2.1774   -1.4599 H         1 <0>         0.0690
     33 H8          5.7723   -1.5733   -2.5493 H         1 <0>         0.0866
     34 H9          6.6340   -3.1504   -0.7726 H         1 <0>         0.0882
     35 H10         7.3882   -1.5386   -0.7154 H         1 <0>         0.0622
     36 H11         5.5372   -0.4159    2.1981 H         1 <0>         0.0880
     37 H12         6.7613    0.0243    0.9825 H         1 <0>         0.0442
     38 H13         4.6831    1.1688    0.4297 H         1 <0>         0.0868
     39 H14         3.7760   -0.3646    0.5095 H         1 <0>         0.0703
     40 H15         7.4527   -4.2045    0.4432 H         1 <0>         0.0720
     41 H16         7.6240   -4.5737    2.1760 H         1 <0>         0.0801
     42 H17         4.8880   -4.0844    1.5624 H         1 <0>         0.4102
     43 H18         3.3334   -5.9578    0.8547 H         1 <0>         0.1245
     44 H19         4.4964   -7.6309    3.2390 H         1 <0>         0.0991
     45 H20         2.7112   -7.4400    2.8172 H         1 <0>         0.1053
     46 H21         3.1398   -8.4670    0.5378 H         1 <0>         0.1039
     47 H22         4.9251   -8.6579    0.9596 H         1 <0>         0.1078
     48 H23         8.8229   -1.6270    3.7128 H         1 <0>         0.1486
     49 H24        11.0929   -0.6338    2.6376 H         1 <0>         0.1494
     50 H25        10.8671   -0.8471    0.0357 H         1 <0>         0.2022
@<TRIPOS>BOND
     1    1    6 ar
     2    1    2 ar
     3    1   27 1
     4    2    3 ar
     5    2   28 1
     6    3    4 ar
     7    3   29 1
     8    4    5 ar
     9    4    7 1
    10    5    6 ar
    11    5   30 1
    12    6   31 1
    13    7   12 1
    14    7    8 1
    15    8    9 1
    16    8   32 1
    17    8   33 1
    18    9   10 1
    19    9   34 1
    20    9   35 1
    21   10   11 1
    22   10   13 1
    23   11   12 1
    24   11   36 1
    25   11   37 1
    26   12   38 1
    27   12   39 1
    28   13   14 1
    29   13   15 1
    30   13   22 1
    31   15   16 1
    32   15   40 1
    33   15   41 1
    34   16   17 am
    35   16   42 1
    36   17   18 2
    37   17   19 1
    38   19   21 1
    39   19   20 1
    40   19   43 1
    41   20   21 1
    42   20   44 1
    43   20   45 1
    44   21   46 1
    45   21   47 1
    46   22   26 1
    47   22   23 2
    48   23   24 1
    49   23   48 1
    50   24   25 2
    51   24   49 1
    52   25   26 1
    53   25   50 1
@<TRIPOS>MOLECULE
ZINC66352549
   49    51     0     0     0
SMALL
USER_CHARGES

@<TRIPOS>ATOM
      1 C1          0.0613    1.5260    0.0494 C.3       1 <0>        -0.1634
      2 C2          0.0821   -0.0038    0.0406 C.3       1 <0>         0.1524
      3 H1         -0.9396   -0.3813    0.0830 H         1 <0>         0.0997
      4 C3          0.7552   -0.4974   -1.2417 C.3       1 <0>        -0.1207
      5 C4          0.6666   -2.0002   -1.3092 C.2       1 <0>         0.4536
      6 O1          0.1211   -2.6137   -0.4226 O.2       1 <0>        -0.4709
      7 O2          1.1940   -2.6576   -2.3544 O.3       1 <0>        -0.2985
      8 C5          1.1822   -4.0164   -2.3255 C.ar      1 <0>         0.0937
      9 C6         -0.0039   -4.7034   -2.6028 C.ar      1 <0>        -0.1054
     10 C7         -0.0477   -6.0622   -2.5818 C.ar      1 <0>        -0.0723
     11 C8          1.1139   -6.7948   -2.2778 C.ar      1 <0>         0.1279
     12 C9          2.3161   -6.0985   -1.9971 C.ar      1 <0>        -0.0927
     13 C10         2.3304   -4.6955   -2.0314 C.ar      1 <0>        -0.0953
     14 C11         3.4764   -6.8353   -1.6934 C.ar      1 <0>        -0.0543
     15 C12         3.3900   -8.1986   -1.6828 C.ar      1 <0>        -0.1706
     16 C13         2.1766   -8.8203   -1.9679 C.ar      1 <0>         0.1361
     17 N1          1.0978   -8.1310   -2.2509 N.ar      1 <0>        -0.4715
     18 N2          0.8306   -0.4888    1.2028 N.am      1 <0>        -0.7242
     19 C14         0.2111   -0.6328    2.3911 C.2       1 <0>         0.5255
     20 O3         -0.9660   -0.3609    2.4982 O.2       1 <0>        -0.5347
     21 C15         0.9810   -1.1316    3.5867 C.3       1 <0>        -0.1048
     22 C16         1.5384   -2.5251    3.2892 C.3       1 <0>        -0.1066
     23 C17         2.3201   -3.0315    4.5030 C.3       1 <0>        -0.1177
     24 C18         1.3896   -3.1026    5.7154 C.3       1 <0>        -0.1230
     25 C19         0.8322   -1.7091    6.0129 C.3       1 <0>        -0.1199
     26 C20         0.0505   -1.2027    4.7991 C.3       1 <0>        -0.0995
     27 H2          1.0830    1.9035    0.0069 H         1 <0>         0.0614
     28 H3         -0.4956    1.8868   -0.8154 H         1 <0>         0.0708
     29 H4         -0.4183    1.8776    0.9629 H         1 <0>         0.0695
     30 H5          0.2517   -0.0645   -2.1061 H         1 <0>         0.1267
     31 H6          1.8024   -0.1948   -1.2420 H         1 <0>         0.1155
     32 H7         -0.8989   -4.1461   -2.8369 H         1 <0>         0.1361
     33 H8         -0.9719   -6.5775   -2.7976 H         1 <0>         0.1454
     34 H9          3.2424   -4.1560   -1.8226 H         1 <0>         0.1394
     35 H10         4.4092   -6.3366   -1.4751 H         1 <0>         0.1419
     36 H11         4.2617   -8.7937   -1.4541 H         1 <0>         0.1423
     37 H12         2.1230   -9.8989   -1.9559 H         1 <0>         0.1635
     38 H13         1.7720   -0.7062    1.1172 H         1 <0>         0.3965
     39 H14         1.8037   -0.4490    3.7996 H         1 <0>         0.0954
     40 H15         0.7157   -3.2076    3.0762 H         1 <0>         0.0692
     41 H16         2.2014   -2.4744    2.4254 H         1 <0>         0.0616
     42 H17         2.7172   -4.0242    4.2910 H         1 <0>         0.0647
     43 H18         3.1428   -2.3489    4.7159 H         1 <0>         0.0637
     44 H19         0.5669   -3.7852    5.5025 H         1 <0>         0.0629
     45 H20         1.9465   -3.4634    6.5802 H         1 <0>         0.0632
     46 H21         0.1693   -1.7598    6.8767 H         1 <0>         0.0662
     47 H22         1.6549   -1.0266    6.2259 H         1 <0>         0.0622
     48 H23        -0.3466   -0.2100    5.0110 H         1 <0>         0.0691
     49 H24        -0.7722   -1.8853    4.5861 H         1 <0>         0.0698
@<TRIPOS>BOND
     1    1    2 1
     2    1   27 1
     3    1   28 1
     4    1   29 1
     5    2    3 1
     6    2    4 1
     7    2   18 1
     8    4    5 1
     9    4   30 1
    10    4   31 1
    11    5    6 2
    12    5    7 1
    13    7    8 1
    14    8   13 ar
    15    8    9 ar
    16    9   10 ar
    17    9   32 1
    18   10   11 ar
    19   10   33 1
    20   11   17 ar
    21   11   12 ar
    22   12   13 ar
    23   12   14 ar
    24   13   34 1
    25   14   15 ar
    26   14   35 1
    27   15   16 ar
    28   15   36 1
    29   16   17 ar
    30   16   37 1
    31   18   19 am
    32   18   38 1
    33   19   20 2
    34   19   21 1
    35   21   26 1
    36   21   22 1
    37   21   39 1
    38   22   23 1
    39   22   40 1
    40   22   41 1
    41   23   24 1
    42   23   42 1
    43   23   43 1
    44   24   25 1
    45   24   44 1
    46   24   45 1
    47   25   26 1
    48   25   46 1
    49   25   47 1
    50   26   48 1
    51   26   49 1
@<TRIPOS>MOLECULE
ZINC04539488
   38    41     0     0     0
SMALL
USER_CHARGES
chloro-(2,4-dichlorophenyl)-nitro-BLAHol
@<TRIPOS>ATOM
      1 C1         -2.3159    0.5860   -6.3450 C.ar      1 <0>        -0.1087
      2 C2         -1.7781   -0.1755   -5.3242 C.ar      1 <0>        -0.0849
      3 C3         -0.5584    0.1688   -4.7733 C.ar      1 <0>        -0.0705
      4 C4          0.1230    1.2793   -5.2397 C.ar      1 <0>        -0.0018
      5 C5         -0.4120    2.0386   -6.2645 C.ar      1 <0>        -0.1074
      6 C6         -1.6332    1.6934   -6.8156 C.ar      1 <0>        -0.0226
      7 Cl1        -2.3084    2.6493   -8.0978 Cl        1 <0>        -0.0642
      8 Cl2         1.6518    1.7159   -4.5426 Cl        1 <0>        -0.0373
      9 C7          0.0269   -0.6616   -3.6603 C.3       1 <0>         0.1475
     10 H1          1.0968   -0.7959   -3.8202 H         1 <0>         0.1000
     11 C8         -0.6602   -2.0101   -3.6059 C.3       1 <0>        -0.1219
     12 H2         -1.7032   -1.9277   -3.3001 H         1 <0>         0.0934
     13 C9         -0.4841   -2.9352   -4.8112 C.3       1 <0>        -0.0840
     14 C10        -0.6240   -4.3064   -4.1453 C.2       1 <0>        -0.1723
     15 C11        -0.2589   -4.2293   -2.8704 C.2       1 <0>        -0.1574
     16 C12         0.1823   -2.8412   -2.5886 C.3       1 <0>        -0.0384
     17 H3          1.2308   -2.7521   -2.8729 H         1 <0>         0.0891
     18 C13         0.0039   -2.2014   -1.2666 C.ar      1 <0>        -0.0335
     19 C14        -0.1626   -0.8161   -1.2304 C.ar      1 <0>         0.0126
     20 C15        -0.2975   -0.1951    0.0170 C.ar      1 <0>         0.2949
     21 C16        -0.2916   -0.9395    1.1804 C.ar      1 <0>        -0.2402
     22 C17        -0.1437   -2.3143    1.1261 C.ar      1 <0>         0.0503
     23 C18         0.0060   -2.9378   -0.0991 C.ar      1 <0>        -0.1389
     24 N1          0.1695   -4.4076   -0.1592 N.pl3     1 <0>         0.0516
     25 O1         -0.8096   -5.1259   -0.2540 O.2       1 <0>        -0.1712
     26 O2          1.2831   -4.8989   -0.1138 O.3       1 <0>        -0.1637
     27 Cl3        -0.1467   -3.2510    2.5876 Cl        1 <0>        -0.0858
     28 N2         -0.2099   -0.0036   -2.3654 N.pl3     1 <0>        -0.6005
     29 H4         -3.2693    0.3167   -6.7748 H         1 <0>         0.1393
     30 H5         -2.3116   -1.0397   -4.9569 H         1 <0>         0.1448
     31 H6          0.1212    2.9032   -6.6313 H         1 <0>         0.1434
     32 H7          0.4977   -2.8220   -5.2709 H         1 <0>         0.0806
     33 H8         -1.2766   -2.7724   -5.5416 H         1 <0>         0.0719
     34 H9         -0.9688   -5.2032   -4.6386 H         1 <0>         0.1288
     35 H10        -0.2800   -5.0410   -2.1582 H         1 <0>         0.1385
     36 H11        -0.4024   -0.4471    2.1352 H         1 <0>         0.1291
     37 H12        -1.0622    0.5363   -2.3846 H         1 <0>         0.3574
     38 O3         -0.4415    1.1557    0.0837 O.3       1 <0>        -0.6680
@<TRIPOS>BOND
     1    1    6 ar
     2    1    2 ar
     3    1   29 1
     4    2    3 ar
     5    2   30 1
     6    3    4 ar
     7    3    9 1
     8    4    5 ar
     9    4    8 1
    10    5    6 ar
    11    5   31 1
    12    6    7 1
    13    9   10 1
    14    9   28 1
    15    9   11 1
    16   11   12 1
    17   11   16 1
    18   11   13 1
    19   13   14 1
    20   13   32 1
    21   13   33 1
    22   14   15 2
    23   14   34 1
    24   15   16 1
    25   15   35 1
    26   16   17 1
    27   16   18 1
    28   18   23 ar
    29   18   19 ar
    30   19   20 ar
    31   19   28 1
    32   20   21 ar
    33   20   38 1
    34   21   22 ar
    35   21   36 1
    36   22   23 ar
    37   22   27 1
    38   23   24 1
    39   24   25 2
    40   24   26 1
    41   28   37 1
@<TRIPOS>MOLECULE
ZINC20828565
   39    43     0     0     0
SMALL
USER_CHARGES
4-chloro-5-((N'E)-N'-(pyren-1-ylmethylene)hydrazino)-2H-pyridazin-3-one
@<TRIPOS>ATOM
      1 C1         -2.6326    5.1685    0.0615 C.ar      1 <0>        -0.1187
      2 C2         -1.4065    5.9889    0.0605 C.ar      1 <0>        -0.1044
      3 C3         -0.2361    5.3982    0.0487 C.ar      1 <0>        -0.0468
      4 C4          1.0291    6.1534    0.0477 C.ar      1 <0>        -0.1119
      5 C5          2.1767    5.5102    0.0347 C.ar      1 <0>        -0.0914
      6 C6          2.2586    4.0422    0.0208 C.ar      1 <0>        -0.0423
      7 C7          3.5751    3.3740    0.0063 C.ar      1 <0>        -0.1066
      8 C8          3.6489    2.0602   -0.0053 C.ar      1 <0>        -0.0882
      9 C9          2.4228    1.2397   -0.0056 C.ar      1 <0>         0.0085
     10 C10         1.2523    1.8302    0.0077 C.ar      1 <0>        -0.0419
     11 C11         1.1754    3.3030    0.0214 C.ar      1 <0>        -0.0321
     12 C12        -0.1592    3.9255    0.0354 C.ar      1 <0>        -0.0320
     13 C13        -1.2425    3.1863    0.0356 C.ar      1 <0>        -0.0425
     14 C14        -2.5589    3.8547    0.0497 C.ar      1 <0>        -0.1035
     15 C15        -1.1605    1.7184    0.0167 C.ar      1 <0>        -0.1059
     16 C16        -0.0129    1.0751    0.0091 C.ar      1 <0>        -0.0952
     17 C17         2.5130   -0.2305   -0.0192 C.2       1 <0>         0.0329
     18 N1          3.6538   -0.8009   -0.1293 N.2       1 <0>        -0.1693
     19 N2          3.7316   -2.1947   -0.2476 N.pl3     1 <0>        -0.5739
     20 C18         4.9668   -2.8204   -0.2622 C.ar      1 <0>         0.2077
     21 C19         5.0514   -4.2292   -0.2705 C.ar      1 <0>        -0.0742
     22 N3          6.2130   -4.8204   -0.2846 N.ar      1 <0>        -0.2124
     23 N4          7.3993   -4.0795   -0.2915 N.ar      1 <0>        -0.4599
     24 C20         7.3661   -2.7324   -0.2836 C.ar      1 <0>         0.4538
     25 O1          8.4062   -2.0918   -0.2897 O.3       1 <0>        -0.6095
     26 C21         6.1294   -2.0702   -0.2746 C.ar      1 <0>        -0.2046
     27 Cl1         6.0588   -0.3357   -0.2720 Cl        1 <0>        -0.0641
     28 H1         -3.5991    5.6503    0.0717 H         1 <0>         0.1271
     29 H2         -1.4725    7.0668    0.0710 H         1 <0>         0.1295
     30 H3          1.0145    7.2333    0.0573 H         1 <0>         0.1321
     31 H4          3.0929    6.0819    0.0338 H         1 <0>         0.1267
     32 H5          4.4793    3.9646    0.0055 H         1 <0>         0.1321
     33 H6          4.6154    1.5785   -0.0159 H         1 <0>         0.1370
     34 H7         -3.4631    3.2641    0.0499 H         1 <0>         0.1277
     35 H8         -2.0768    1.1467    0.0126 H         1 <0>         0.1255
     36 H9          0.0017   -0.0048   -0.0005 H         1 <0>         0.1338
     37 H10         1.6001   -0.8383    0.0653 H         1 <0>         0.1162
     38 H11         2.8115   -2.7920   -0.3289 H         1 <0>         0.3996
     39 H12         4.1481   -4.8211   -0.2654 H         1 <0>         0.1410
@<TRIPOS>BOND
     1    1   14 ar
     2    1    2 ar
     3    1   28 1
     4    2    3 ar
     5    2   29 1
     6    3   12 ar
     7    3    4 ar
     8    4    5 ar
     9    4   30 1
    10    5    6 ar
    11    5   31 1
    12    6   11 ar
    13    6    7 ar
    14    7    8 ar
    15    7   32 1
    16    8    9 ar
    17    8   33 1
    18    9   10 ar
    19    9   17 1
    20   10   16 ar
    21   10   11 ar
    22   11   12 ar
    23   12   13 ar
    24   13   14 ar
    25   13   15 ar
    26   14   34 1
    27   15   16 ar
    28   15   35 1
    29   16   36 1
    30   17   18 2
    31   17   37 1
    32   18   19 1
    33   19   20 1
    34   19   38 1
    35   20   26 ar
    36   20   21 ar
    37   21   22 ar
    38   21   39 1
    39   22   23 ar
    40   23   24 ar
    41   24   25 1
    42   24   26 ar
    43   26   27 1
@<TRIPOS>MOLECULE
ZINC08558318
   37    39     0     0     0
SMALL
USER_CHARGES

@<TRIPOS>ATOM
      1 C1          0.0185    1.5032    0.0082 C.3       1 <0>        -0.1102
      2 C2          0.0293   -0.0038    0.0003 C.ar      1 <0>        -0.1152
      3 C3         -0.7162   -0.6943   -0.9377 C.ar      1 <0>        -0.0883
      4 C4         -0.7086   -2.0751   -0.9478 C.ar      1 <0>        -0.1559
      5 C5          0.0490   -2.7715   -0.0143 C.ar      1 <0>         0.1987
      6 C6          0.7968   -2.0761    0.9267 C.ar      1 <0>        -0.1055
      7 C7          0.7896   -0.6937    0.9282 C.ar      1 <0>        -0.0104
      8 Cl1         1.7299    0.1773    2.0990 Cl        1 <0>        -0.0743
      9 N1          0.0581   -4.1695   -0.0221 N.pl3     1 <0>        -0.6438
     10 C8          0.1778   -4.8680    1.1683 C.ar      1 <0>         0.5129
     11 N2          0.3002   -6.1893    1.1439 N.ar      1 <0>        -0.6260
     12 C9          0.4146   -6.8541    2.2883 C.ar      1 <0>         0.4456
     13 O1          0.5415   -8.2033    2.2942 O.3       1 <0>        -0.6705
     14 C10         0.4020   -6.1350    3.4847 C.ar      1 <0>        -0.0944
     15 N3          0.2775   -4.8220    3.4454 N.ar      1 <0>        -0.1555
     16 N4          0.1741   -4.2079    2.3191 N.ar      1 <0>        -0.4181
     17 C11         0.5287   -6.8497    4.8054 C.3       1 <0>         0.0041
     18 C12         1.9841   -6.9563    5.1813 C.ar      1 <0>        -0.0534
     19 C13         2.6982   -8.0968    4.8646 C.ar      1 <0>        -0.0887
     20 C14         4.0332   -8.1947    5.2094 C.ar      1 <0>        -0.1240
     21 C15         4.6551   -7.1521    5.8711 C.ar      1 <0>        -0.1214
     22 C16         3.9423   -6.0115    6.1883 C.ar      1 <0>        -0.1218
     23 C17         2.6073   -5.9106    5.8384 C.ar      1 <0>        -0.0293
     24 Cl2         1.7129   -4.4753    6.2306 Cl        1 <0>        -0.0566
     25 H1          0.8140    1.8756   -0.6372 H         1 <0>         0.0673
     26 H2         -0.9438    1.8615   -0.3575 H         1 <0>         0.0644
     27 H3          0.1774    1.8623    1.0250 H         1 <0>         0.0689
     28 H4         -1.3053   -0.1529   -1.6631 H         1 <0>         0.1286
     29 H5         -1.2914   -2.6134   -1.6806 H         1 <0>         0.1266
     30 H6          1.3865   -2.6146    1.6539 H         1 <0>         0.1514
     31 H7         -0.0194   -4.6503   -0.8609 H         1 <0>         0.4157
     32 H8         -0.0051   -6.2905    5.5738 H         1 <0>         0.0794
     33 H9          0.1013   -7.8489    4.7202 H         1 <0>         0.0887
     34 H10         2.2129   -8.9116    4.3481 H         1 <0>         0.1385
     35 H11         4.5906   -9.0860    4.9621 H         1 <0>         0.1226
     36 H12         5.6981   -7.2293    6.1406 H         1 <0>         0.1234
     37 H13         4.4281   -5.1973    6.7055 H         1 <0>         0.1262
@<TRIPOS>BOND
     1    1    2 1
     2    1   25 1
     3    1   26 1
     4    1   27 1
     5    2    7 ar
     6    2    3 ar
     7    3    4 ar
     8    3   28 1
     9    4    5 ar
    10    4   29 1
    11    5    6 ar
    12    5    9 1
    13    6    7 ar
    14    6   30 1
    15    7    8 1
    16    9   10 1
    17    9   31 1
    18   10   16 ar
    19   10   11 ar
    20   11   12 ar
    21   12   13 1
    22   12   14 ar
    23   14   15 ar
    24   14   17 1
    25   15   16 ar
    26   17   18 1
    27   17   32 1
    28   17   33 1
    29   18   23 ar
    30   18   19 ar
    31   19   20 ar
    32   19   34 1
    33   20   21 ar
    34   20   35 1
    35   21   22 ar
    36   21   36 1
    37   22   23 ar
    38   22   37 1
    39   23   24 1
@<TRIPOS>MOLECULE
ZINC41120757
   44    47     0     0     0
SMALL
USER_CHARGES

@<TRIPOS>ATOM
      1 C1         -5.8741   -3.9994   -1.4491 C.3       1 <0>        -0.1176
      2 C2         -4.4055   -4.0810   -1.1208 C.ar      1 <0>        -0.0796
      3 C3         -3.4645   -3.7833   -2.0897 C.ar      1 <0>        -0.1027
      4 C4         -2.1181   -3.8569   -1.7924 C.ar      1 <0>        -0.0860
      5 C5         -1.7090   -4.2307   -0.5180 C.ar      1 <0>        -0.1265
      6 C6         -2.6573   -4.5291    0.4529 C.ar      1 <0>        -0.1103
      7 C7         -4.0021   -4.4478    0.1502 C.ar      1 <0>        -0.1032
      8 S1          0.0080   -4.3266   -0.1344 S.3       1 <0>         0.1033
      9 C8          0.0401   -4.6760    1.5923 C.2       1 <0>        -0.0304
     10 C9          0.1430   -5.9307    2.1572 C.2       1 <0>        -0.1424
     11 C10         0.1328   -5.7604    3.5381 C.2       1 <0>        -0.1181
     12 C11         0.0229   -4.3940    3.7732 C.2       1 <0>        -0.0265
     13 O1         -0.0256   -3.7650    2.5764 O.3       1 <0>        -0.1332
     14 C12        -0.0237   -3.7779    5.0269 C.2       1 <0>         0.0923
     15 C13        -0.2463   -2.4053    5.1209 C.2       1 <0>        -0.0360
     16 C14        -0.3104   -1.6074    3.9336 C.1       1 <0>         0.2492
     17 N1         -0.3613   -0.9743    2.9917 N.1       1 <0>        -0.3651
     18 C15        -0.4146   -1.7797    6.4328 C.2       1 <0>         0.4812
     19 N2         -0.6255   -0.4795    6.5219 N.2       1 <0>        -0.4917
     20 C16        -0.6751    0.1142    7.7318 C.2       1 <0>         0.3249
     21 N3          0.2913    0.7200    8.3979 N.2       1 <0>        -0.5031
     22 C17         0.0932    1.2745    9.6110 C.ar      1 <0>         0.0841
     23 C18         1.0338    1.9477   10.4263 C.ar      1 <0>        -0.0605
     24 C19         0.6667    2.4564   11.6447 C.ar      1 <0>        -0.1081
     25 C20        -0.6304    2.3324   12.1212 C.ar      1 <0>        -0.0927
     26 C21        -1.5763    1.6807   11.3504 C.ar      1 <0>        -0.0661
     27 C22        -1.2185    1.1674   10.1291 C.ar      1 <0>        -0.1349
     28 S2         -2.0672    0.2887    8.8390 S.3       1 <0>        -0.0427
     29 O2         -0.3541   -2.5332    7.5538 O.3       1 <0>        -0.4850
     30 H1         -6.2377   -2.9933   -1.2405 H         1 <0>         0.0737
     31 H2         -6.0238   -4.2284   -2.5042 H         1 <0>         0.0697
     32 H3         -6.4230   -4.7177   -0.8400 H         1 <0>         0.0685
     33 H4         -3.7831   -3.4933   -3.0800 H         1 <0>         0.1318
     34 H5         -1.3838   -3.6247   -2.5496 H         1 <0>         0.1314
     35 H6         -2.3429   -4.8199    1.4444 H         1 <0>         0.1183
     36 H7         -4.7397   -4.6750    0.9057 H         1 <0>         0.1273
     37 H8          0.2172   -6.8687    1.6271 H         1 <0>         0.1733
     38 H9          0.1973   -6.5392    4.2836 H         1 <0>         0.1761
     39 H10         0.1128   -4.3655    5.9227 H         1 <0>         0.1928
     40 H11         2.0520    2.0614   10.0848 H         1 <0>         0.1351
     41 H12         1.4041    2.9652   12.2479 H         1 <0>         0.1372
     42 H13        -0.8989    2.7403   13.0845 H         1 <0>         0.1414
     43 H14        -2.5900    1.5759   11.7079 H         1 <0>         0.1356
     44 H15        -0.5555   -2.0476    8.3654 H         1 <0>         0.4151
@<TRIPOS>BOND
     1    1    2 1
     2    1   30 1
     3    1   31 1
     4    1   32 1
     5    2    7 ar
     6    2    3 ar
     7    3    4 ar
     8    3   33 1
     9    4    5 ar
    10    4   34 1
    11    5    6 ar
    12    5    8 1
    13    6    7 ar
    14    6   35 1
    15    7   36 1
    16    8    9 1
    17    9   13 1
    18    9   10 2
    19   10   11 1
    20   10   37 1
    21   11   12 2
    22   11   38 1
    23   12   13 1
    24   12   14 1
    25   14   15 2
    26   14   39 1
    27   15   16 1
    28   15   18 1
    29   16   17 3
    30   18   19 2
    31   18   29 1
    32   19   20 1
    33   20   28 1
    34   20   21 2
    35   21   22 1
    36   22   27 ar
    37   22   23 ar
    38   23   24 ar
    39   23   40 1
    40   24   25 ar
    41   24   41 1
    42   25   26 ar
    43   25   42 1
    44   26   27 ar
    45   26   43 1
    46   27   28 1
    47   29   44 1
@<TRIPOS>MOLECULE
ZINC16901375
   39    42     0     0     0
SMALL
USER_CHARGES

@<TRIPOS>ATOM
      1 C1          0.1125    1.4684   -1.1786 C.3       1 <0>         0.0833
      2 N1          0.1171    0.0053   -1.1052 N.am      1 <0>        -0.5513
      3 C2         -1.0115   -0.7910   -1.2666 C.ar      1 <0>         0.1443
      4 C3         -2.3401   -0.4692   -1.5186 C.ar      1 <0>        -0.1484
      5 C4         -3.2854   -1.4688   -1.6369 C.ar      1 <0>        -0.0852
      6 C5         -2.9258   -2.8000   -1.5063 C.ar      1 <0>        -0.1504
      7 C6         -1.6121   -3.1404   -1.2560 C.ar      1 <0>        -0.0569
      8 C7         -0.6507   -2.1400   -1.1354 C.ar      1 <0>        -0.0920
      9 C8          0.8036   -2.1610   -0.8755 C.2       1 <0>        -0.0853
     10 C9          1.6050   -3.2646   -0.6788 C.2       1 <0>        -0.0807
     11 C10         1.2330   -4.7026   -0.5283 C.2       1 <0>         0.5319
     12 O1          0.0742   -5.0770   -0.5688 O.2       1 <0>        -0.5099
     13 N2          2.2292   -5.5404   -0.3499 N.2       1 <0>        -0.7071
     14 C11         3.4924   -5.1459   -0.3044 C.2       1 <0>         0.4289
     15 S1          3.3845   -3.3789   -0.5396 S.3       1 <0>        -0.0477
     16 N3          4.6114   -5.9091   -0.1262 N.2       1 <0>        -0.5524
     17 C12         4.5201   -7.3030   -0.1660 C.ar      1 <0>         0.1547
     18 C13         5.4690   -8.0819    0.4850 C.ar      1 <0>        -0.1076
     19 C14         5.3755   -9.4588    0.4440 C.ar      1 <0>        -0.1105
     20 C15         4.3388  -10.0631   -0.2440 C.ar      1 <0>        -0.1224
     21 C16         3.3931   -9.2910   -0.8932 C.ar      1 <0>        -0.1694
     22 C17         3.4773   -7.9131   -0.8515 C.ar      1 <0>        -0.1026
     23 C18         2.2656   -9.9538   -1.6420 C.3       1 <0>         0.5073
     24 F1          2.3892  -11.3434   -1.5366 F         1 <0>        -0.1856
     25 F2          1.0425   -9.5516   -1.0949 F         1 <0>        -0.1733
     26 F3          2.3186   -9.5819   -2.9896 F         1 <0>        -0.1816
     27 C19         1.2135   -0.7383   -0.8790 C.2       1 <0>         0.5567
     28 O2          2.3411   -0.3174   -0.7053 O.2       1 <0>        -0.4894
     29 H1          1.1241    1.8432   -1.0222 H         1 <0>         0.0899
     30 H2         -0.2433    1.7819   -2.1600 H         1 <0>         0.0691
     31 H3         -0.5465    1.8688   -0.4082 H         1 <0>         0.0690
     32 H4         -2.6337    0.5650   -1.6218 H         1 <0>         0.1219
     33 H5         -4.3155   -1.2099   -1.8327 H         1 <0>         0.1255
     34 H6         -3.6746   -3.5726   -1.6002 H         1 <0>         0.1266
     35 H7         -1.3307   -4.1781   -1.1541 H         1 <0>         0.1738
     36 H8          6.2789   -7.6107    1.0221 H         1 <0>         0.1264
     37 H9          6.1129  -10.0648    0.9495 H         1 <0>         0.1257
     38 H10         4.2680  -11.1403   -0.2744 H         1 <0>         0.1253
     39 H11         2.7359   -7.3106   -1.3552 H         1 <0>         0.1489
@<TRIPOS>BOND
     1    1    2 1
     2    1   29 1
     3    1   30 1
     4    1   31 1
     5    2   27 am
     6    2    3 1
     7    3    8 ar
     8    3    4 ar
     9    4    5 ar
    10    4   32 1
    11    5    6 ar
    12    5   33 1
    13    6    7 ar
    14    6   34 1
    15    7    8 ar
    16    7   35 1
    17    8    9 1
    18    9   10 2
    19    9   27 1
    20   10   15 1
    21   10   11 1
    22   11   12 2
    23   11   13 1
    24   13   14 2
    25   14   15 1
    26   14   16 1
    27   16   17 1
    28   17   22 ar
    29   17   18 ar
    30   18   19 ar
    31   18   36 1
    32   19   20 ar
    33   19   37 1
    34   20   21 ar
    35   20   38 1
    36   21   22 ar
    37   21   23 1
    38   22   39 1
    39   23   24 1
    40   23   25 1
    41   23   26 1
    42   27   28 2
@<TRIPOS>MOLECULE
ZINC66508147
   43    45     0     0     0
SMALL
USER_CHARGES

@<TRIPOS>ATOM
      1 C1         -0.0113    1.4795   -0.0153 C.3       1 <0>        -0.1146
      2 C2          0.0026   -0.0274   -0.0089 C.ar      1 <0>        -0.0491
      3 C3          0.0015   -0.7188   -1.1876 C.ar      1 <0>        -0.1419
      4 C4          0.0148   -2.1067   -1.1888 C.ar      1 <0>        -0.1098
      5 C5          0.0289   -2.8128   -0.0046 C.ar      1 <0>        -0.0766
      6 C6          0.0303   -2.1323    1.2067 C.ar      1 <0>         0.0562
      7 C7          0.0226   -0.7239    1.2024 C.ar      1 <0>        -0.0985
      8 C8          0.0342   -0.3225    2.6073 C.2       1 <0>        -0.1627
      9 C9          0.0532   -1.4785    3.3294 C.2       1 <0>         0.0910
     10 O1          0.0422   -2.5371    2.4920 O.3       1 <0>        -0.1727
     11 C10         0.0700   -1.5594    4.7889 C.2       1 <0>         0.4253
     12 O2         -1.0878   -1.5022    5.4818 O.3       1 <0>        -0.6086
     13 C11         1.2812   -1.6957    5.4656 C.2       1 <0>        -0.3959
     14 C12         1.2911   -1.8861    6.8848 C.1       1 <0>         0.3134
     15 N1          1.2989   -2.0371    8.0107 N.1       1 <0>        -0.5149
     16 C13         2.5441   -1.6441    4.7246 C.2       1 <0>         0.5943
     17 O3          2.5415   -1.3878    3.5345 O.2       1 <0>        -0.5420
     18 N2          3.7086   -1.8804    5.3606 N.am      1 <0>        -0.6824
     19 C14         4.9051   -1.9219    4.6366 C.ar      1 <0>         0.1838
     20 C15         5.0846   -1.0883    3.5406 C.ar      1 <0>        -0.1132
     21 C16         6.2670   -1.1313    2.8282 C.ar      1 <0>        -0.0970
     22 C17         7.2721   -2.0035    3.2047 C.ar      1 <0>        -0.1401
     23 C18         7.0973   -2.8355    4.2950 C.ar      1 <0>        -0.0939
     24 C19         5.9189   -2.7934    5.0162 C.ar      1 <0>        -0.0774
     25 Cl1         5.7028   -3.8327    6.3899 Cl        1 <0>        -0.0717
     26 C20         0.0266    1.0840    3.1482 C.3       1 <0>        -0.0736
     27 C21         0.0422   -4.3196   -0.0242 C.3       1 <0>        -0.1094
     28 H1          1.0128    1.8523   -0.0283 H         1 <0>         0.0684
     29 H2         -0.5384    1.8342   -0.9010 H         1 <0>         0.0617
     30 H3         -0.5186    1.8420    0.8788 H         1 <0>         0.0715
     31 H4         -0.0101   -0.1817   -2.1245 H         1 <0>         0.1205
     32 H5          0.0138   -2.6397   -2.1281 H         1 <0>         0.1258
     33 H6          3.7172   -2.0217    6.3202 H         1 <0>         0.4071
     34 H7          4.3001   -0.4073    3.2453 H         1 <0>         0.1524
     35 H8          6.4069   -0.4831    1.9758 H         1 <0>         0.1268
     36 H9          8.1955   -2.0350    2.6454 H         1 <0>         0.1261
     37 H10         7.8839   -3.5160    4.5860 H         1 <0>         0.1302
     38 H11        -1.0027    1.4133    3.2899 H         1 <0>         0.0613
     39 H12         0.5508    1.1087    4.1035 H         1 <0>         0.0660
     40 H13         0.5264    1.7474    2.4423 H         1 <0>         0.0645
     41 H14         1.0730   -4.6737   -0.0356 H         1 <0>         0.0684
     42 H15        -0.4625   -4.6990    0.8644 H         1 <0>         0.0661
     43 H16        -0.4744   -4.6760   -0.9154 H         1 <0>         0.0650
@<TRIPOS>BOND
     1    1    2 1
     2    1   28 1
     3    1   29 1
     4    1   30 1
     5    2    7 ar
     6    2    3 ar
     7    3    4 ar
     8    3   31 1
     9    4    5 ar
    10    4   32 1
    11    5    6 ar
    12    5   27 1
    13    6   10 1
    14    6    7 ar
    15    7    8 1
    16    8    9 2
    17    8   26 1
    18    9   10 1
    19    9   11 1
    20   11   12 1
    21   11   13 2
    22   13   14 1
    23   13   16 1
    24   14   15 3
    25   16   17 2
    26   16   18 am
    27   18   19 1
    28   18   33 1
    29   19   24 ar
    30   19   20 ar
    31   20   21 ar
    32   20   34 1
    33   21   22 ar
    34   21   35 1
    35   22   23 ar
    36   22   36 1
    37   23   24 ar
    38   23   37 1
    39   24   25 1
    40   26   38 1
    41   26   39 1
    42   26   40 1
    43   27   41 1
    44   27   42 1
    45   27   43 1
@<TRIPOS>MOLECULE
ZINC14095041
   46    50     0     0     0
SMALL
USER_CHARGES
2-[(E)-2-(2-phenylimidazo[3,2-a]pyridin-3-yl)vinyl]quinoline-4-carboxylic acid
@<TRIPOS>ATOM
      1 C1          1.6509   -4.0996    4.3652 C.ar      1 <0>        -0.1099
      2 C2          1.2927   -5.2805    3.7398 C.ar      1 <0>        -0.1238
      3 C3          2.0640   -5.7811    2.7111 C.ar      1 <0>        -0.0881
      4 C4          3.2069   -5.0940    2.3020 C.ar      1 <0>        -0.0173
      5 C5          3.5659   -3.9068    2.9404 C.ar      1 <0>        -0.0924
      6 C6          2.7833   -3.4134    3.9641 C.ar      1 <0>        -0.1172
      7 C7          4.0392   -5.6258    1.1984 C.2       1 <0>         0.1251
      8 C8          4.7222   -4.8676    0.2444 C.2       1 <0>        -0.0193
      9 N1          5.3662   -5.7688   -0.5793 N.pl3     1 <0>        -0.3506
     10 C9          6.1727   -5.6030   -1.6649 C.2       1 <0>         0.0642
     11 C10         6.6871   -6.6729   -2.3105 C.2       1 <0>        -0.1451
     12 C11         6.3959   -7.9718   -1.8668 C.2       1 <0>        -0.1028
     13 C12         5.5914   -8.1495   -0.7823 C.2       1 <0>        -0.0801
     14 C13         5.0630   -7.0236   -0.1213 C.2       1 <0>         0.2228
     15 N2          4.2679   -6.9144    0.9376 N.2       1 <0>        -0.4799
     16 C14         4.7527   -3.4579    0.1458 C.2       1 <0>        -0.0736
     17 C15         3.5964   -2.7526    0.1619 C.2       1 <0>        -0.0614
     18 C16         3.6281   -1.2900    0.0596 C.ar      1 <0>         0.1772
     19 C17         2.4120   -0.5783    0.0849 C.ar      1 <0>        -0.1309
     20 C18         2.4309    0.8029   -0.0168 C.ar      1 <0>        -0.0468
     21 C19         3.7388    1.4531   -0.1350 C.ar      1 <0>        -0.0827
     22 C20         3.8555    2.8424   -0.2369 C.ar      1 <0>        -0.0789
     23 C21         5.0919    3.4094   -0.3449 C.ar      1 <0>        -0.1429
     24 C22         6.2397    2.6210   -0.3548 C.ar      1 <0>        -0.1046
     25 C23         6.1614    1.2652   -0.2573 C.ar      1 <0>        -0.1101
     26 C24         4.9032    0.6453   -0.1445 C.ar      1 <0>         0.1222
     27 N3          4.7971   -0.6814   -0.0474 N.ar      1 <0>        -0.4812
     28 C25         1.1809    1.5907   -0.0007 C.2       1 <0>         0.4939
     29 O1          1.2280    2.8044    0.0131 O.co2     1 <0>        -0.6150
     30 H1          1.0437   -3.7115    5.1697 H         1 <0>         0.1226
     31 H2          0.4078   -5.8118    4.0576 H         1 <0>         0.1237
     32 H3          1.7833   -6.7029    2.2233 H         1 <0>         0.1256
     33 H4          4.4521   -3.3726    2.6311 H         1 <0>         0.1254
     34 H5          3.0577   -2.4920    4.4562 H         1 <0>         0.1248
     35 H6          6.4019   -4.6069   -2.0137 H         1 <0>         0.1647
     36 H7          7.3246   -6.5279   -3.1701 H         1 <0>         0.1513
     37 H8          6.8074   -8.8265   -2.3829 H         1 <0>         0.1421
     38 H9          5.3611   -9.1448   -0.4320 H         1 <0>         0.1506
     39 H10         5.6980   -2.9430    0.0577 H         1 <0>         0.1365
     40 H11         2.6511   -3.2675    0.2500 H         1 <0>         0.1313
     41 H12         1.4739   -1.1052    0.1785 H         1 <0>         0.1465
     42 H13         2.9720    3.4635   -0.2306 H         1 <0>         0.1710
     43 H14         5.1814    4.4828   -0.4233 H         1 <0>         0.1215
     44 H15         7.2075    3.0925   -0.4416 H         1 <0>         0.1207
     45 H16         7.0612    0.6680   -0.2669 H         1 <0>         0.1262
     46 O2         -0.0111    0.9629   -0.0012 O.co2     1 <0>        -0.7352
@<TRIPOS>BOND
     1    1    6 ar
     2    1    2 ar
     3    1   30 1
     4    2    3 ar
     5    2   31 1
     6    3    4 ar
     7    3   32 1
     8    4    5 ar
     9    4    7 1
    10    5    6 ar
    11    5   33 1
    12    6   34 1
    13    7   15 1
    14    7    8 2
    15    8    9 1
    16    8   16 1
    17    9   14 1
    18    9   10 1
    19   10   11 2
    20   10   35 1
    21   11   12 1
    22   11   36 1
    23   12   13 2
    24   12   37 1
    25   13   14 1
    26   13   38 1
    27   14   15 2
    28   16   17 2
    29   16   39 1
    30   17   18 1
    31   17   40 1
    32   18   27 ar
    33   18   19 ar
    34   19   20 ar
    35   19   41 1
    36   20   21 ar
    37   20   28 1
    38   21   26 ar
    39   21   22 ar
    40   22   23 ar
    41   22   42 1
    42   23   24 ar
    43   23   43 1
    44   24   25 ar
    45   24   44 1
    46   25   26 ar
    47   25   45 1
    48   26   27 ar
    49   28   29 2
    50   28   46 1
@<TRIPOS>MOLECULE
ZINC20645466
   53    56     0     0     0
SMALL
USER_CHARGES

@<TRIPOS>ATOM
      1 C1         -2.3950    0.3550    1.0751 C.3       1 <0>        -0.1483
      2 C2         -2.2680   -1.1255    1.4397 C.3       1 <0>        -0.0840
      3 H1         -2.2643   -1.7248    0.5293 H         1 <0>         0.0725
      4 C3         -3.4516   -1.5380    2.3171 C.3       1 <0>        -0.1169
      5 C4         -3.3246   -3.0185    2.6816 C.3       1 <0>        -0.1166
      6 C5         -2.0192   -3.2452    3.4467 C.3       1 <0>        -0.1321
      7 C6         -0.8356   -2.8327    2.5694 C.3       1 <0>         0.1517
      8 H2         -0.8319   -3.4320    1.6589 H         1 <0>         0.0884
      9 C7         -0.9626   -1.3522    2.2048 C.3       1 <0>        -0.0937
     10 H3         -0.1193   -1.0583    1.5797 H         1 <0>         0.0771
     11 C8         -0.9677   -0.5109    3.4827 C.3       1 <0>        -0.1554
     12 N1          0.4144   -3.0497    3.3020 N.am      1 <0>        -0.7254
     13 C9          0.9980   -4.2645    3.2937 C.2       1 <0>         0.5670
     14 O1          0.4874   -5.1800    2.6785 O.2       1 <0>        -0.5330
     15 C10         2.2596   -4.4836    4.0331 C.ar      1 <0>        -0.1319
     16 C11         2.8452   -3.4351    4.7454 C.ar      1 <0>        -0.0835
     17 C12         4.0222   -3.6423    5.4349 C.ar      1 <0>        -0.1176
     18 C13         4.6258   -4.8861    5.4233 C.ar      1 <0>        -0.0593
     19 C14         4.0513   -5.9358    4.7172 C.ar      1 <0>         0.1534
     20 C15         2.8655   -5.7396    4.0262 C.ar      1 <0>        -0.0232
     21 N2          4.6670   -7.1938    4.7082 N.pl3     1 <0>        -0.4650
     22 C16         4.3457   -8.1014    5.6598 C.2       1 <0>         0.5080
     23 O2          3.4428   -7.8107    6.6138 O.3       1 <0>        -0.5954
     24 C17         4.9802   -9.3570    5.6252 C.ar      1 <0>        -0.2417
     25 C18         4.7026  -10.3519    6.5740 C.ar      1 <0>         0.0077
     26 C19         5.3440  -11.5521    6.4965 C.ar      1 <0>        -0.1874
     27 C20         6.2719  -11.8040    5.4872 C.ar      1 <0>         0.0337
     28 C21         6.5652  -10.8575    4.5480 C.ar      1 <0>        -0.1373
     29 C22         5.9257   -9.6121    4.5957 C.ar      1 <0>         0.2335
     30 N3          6.1836   -8.6545    3.6933 N.2       1 <0>        -0.5521
     31 C23         5.5646   -7.4856    3.7521 C.2       1 <0>         0.5056
     32 S1          5.9258   -6.3005    2.5706 S.2       1 <0>        -0.6841
     33 Cl1         7.0677  -13.3455    5.4238 Cl        1 <0>        -0.0764
     34 H4         -1.5517    0.6489    0.4500 H         1 <0>         0.0546
     35 H5         -3.3250    0.5165    0.5300 H         1 <0>         0.0539
     36 H6         -2.3986    0.9544    1.9855 H         1 <0>         0.0581
     37 H7         -3.4553   -0.9386    3.2275 H         1 <0>         0.0658
     38 H8         -4.3816   -1.3765    1.7720 H         1 <0>         0.0613
     39 H9         -4.1678   -3.3124    3.3067 H         1 <0>         0.0636
     40 H10        -3.3209   -3.6178    1.7712 H         1 <0>         0.0639
     41 H11        -2.0229   -2.6458    4.3572 H         1 <0>         0.0666
     42 H12        -1.9287   -4.2999    3.7065 H         1 <0>         0.0682
     43 H13        -1.8110   -0.8048    4.1078 H         1 <0>         0.0651
     44 H14        -0.0377   -0.6724    4.0278 H         1 <0>         0.0516
     45 H15        -1.0582    0.5439    3.2230 H         1 <0>         0.0614
     46 H16         0.8219   -2.3191    3.7929 H         1 <0>         0.3978
     47 H17         2.3771   -2.4619    4.7563 H         1 <0>         0.1241
     48 H18         4.4737   -2.8301    5.9853 H         1 <0>         0.1332
     49 H19         5.5473   -5.0422    5.9646 H         1 <0>         0.1250
     50 H20         2.4150   -6.5554    3.4805 H         1 <0>         0.1323
     51 H21         3.9858  -10.1681    7.3607 H         1 <0>         0.1400
     52 H22         5.1306  -12.3182    7.2273 H         1 <0>         0.1323
     53 H23         7.2868  -11.0678    3.7725 H         1 <0>         0.1432
@<TRIPOS>BOND
     1    1    2 1
     2    1   34 1
     3    1   35 1
     4    1   36 1
     5    2    3 1
     6    2    9 1
     7    2    4 1
     8    4    5 1
     9    4   37 1
    10    4   38 1
    11    5    6 1
    12    5   39 1
    13    5   40 1
    14    6    7 1
    15    6   41 1
    16    6   42 1
    17    7    8 1
    18    7    9 1
    19    7   12 1
    20    9   10 1
    21    9   11 1
    22   11   43 1
    23   11   44 1
    24   11   45 1
    25   12   13 am
    26   12   46 1
    27   13   14 2
    28   13   15 1
    29   15   20 ar
    30   15   16 ar
    31   16   17 ar
    32   16   47 1
    33   17   18 ar
    34   17   48 1
    35   18   19 ar
    36   18   49 1
    37   19   20 ar
    38   19   21 1
    39   20   50 1
    40   21   31 1
    41   21   22 1
    42   22   23 1
    43   22   24 2
    44   24   29 ar
    45   24   25 ar
    46   25   26 ar
    47   25   51 1
    48   26   27 ar
    49   26   52 1
    50   27   28 ar
    51   27   33 1
    52   28   29 ar
    53   28   53 1
    54   29   30 2
    55   30   31 1
    56   31   32 2
@<TRIPOS>MOLECULE
ZINC02349938
   41    44     0     0     0
SMALL
USER_CHARGES
3-(2,4-dichlorophenyl)-4-[(2-methoxy-1-naphthyl)methyleneamino]-1H-1,2,4-triazole-5-thione
@<TRIPOS>ATOM
      1 C1          2.4214    7.9669    0.0207 C.3       1 <0>         0.0179
      2 O1          1.1382    7.3381    0.0295 O.3       1 <0>        -0.2691
      3 C2          1.1169    5.9808    0.0223 C.ar      1 <0>         0.1866
      4 C3          2.3159    5.2693    0.0075 C.ar      1 <0>        -0.1982
      5 C4          2.3419    3.9104    0.0007 C.ar      1 <0>        -0.0426
      6 C5          1.1480    3.1676    0.0077 C.ar      1 <0>        -0.0885
      7 C6          1.1634    1.7624    0.0004 C.ar      1 <0>        -0.0885
      8 C7         -0.0126    1.0758    0.0080 C.ar      1 <0>        -0.1324
      9 C8         -1.2339    1.7450    0.0174 C.ar      1 <0>        -0.0957
     10 C9         -1.2855    3.1073    0.0305 C.ar      1 <0>        -0.1181
     11 C10        -0.0955    3.8448    0.0227 C.ar      1 <0>         0.0196
     12 C11        -0.1044    5.3067    0.0302 C.ar      1 <0>        -0.1119
     13 C12        -1.3718    6.0496    0.0453 C.2       1 <0>         0.1715
     14 N1         -1.3631    7.3499    0.0519 N.2       1 <0>        -0.2110
     15 N2         -2.5717    8.0584    0.0663 N.pl3     1 <0>        -0.3722
     16 C13        -3.2772    8.4782   -1.0449 C.2       1 <0>         0.1866
     17 N3         -4.3508    9.1007   -0.6430 N.2       1 <0>        -0.2701
     18 N4         -4.3521    9.1025    0.7585 N.2       1 <0>        -0.3705
     19 C14        -3.2430    8.4526    1.1667 C.2       1 <0>         0.3979
     20 S1         -2.7725    8.1779    2.7897 S.3       1 <0>        -0.7587
     21 C15        -2.8833    8.2560   -2.4534 C.ar      1 <0>         0.0234
     22 C16        -1.7033    7.5735   -2.7514 C.ar      1 <0>        -0.0965
     23 C17        -1.3441    7.3637   -4.0664 C.ar      1 <0>        -0.1018
     24 C18        -2.1454    7.8397   -5.0909 C.ar      1 <0>        -0.0280
     25 C19        -3.3144    8.5225   -4.8026 C.ar      1 <0>        -0.1034
     26 C20        -3.6878    8.7333   -3.4898 C.ar      1 <0>        -0.0056
     27 Cl1        -5.1544    9.5893   -3.1292 Cl        1 <0>        -0.0179
     28 Cl2        -1.6821    7.5783   -6.7434 Cl        1 <0>        -0.0668
     29 H1          2.2943    9.0595    0.0279 H         1 <0>         0.1044
     30 H2          2.9702    7.6675   -0.8844 H         1 <0>         0.0551
     31 H3          2.9873    7.6577    0.9118 H         1 <0>         0.0571
     32 H4          3.2492    5.8127    0.0015 H         1 <0>         0.1354
     33 H5          3.2910    3.3950   -0.0104 H         1 <0>         0.1330
     34 H6          2.1028    1.2298   -0.0114 H         1 <0>         0.1275
     35 H7          0.0021   -0.0041    0.0020 H         1 <0>         0.1228
     36 H8         -2.1526    1.1771    0.0187 H         1 <0>         0.1253
     37 H9         -2.2388    3.6146    0.0420 H         1 <0>         0.1285
     38 H10        -2.3280    5.5060    0.0510 H         1 <0>         0.1181
     39 H11        -1.0748    7.2059   -1.9537 H         1 <0>         0.1514
     40 H12        -0.4335    6.8311   -4.2978 H         1 <0>         0.1392
     41 H13        -3.9354    8.8913   -5.6055 H         1 <0>         0.1460
@<TRIPOS>BOND
     1    1    2 1
     2    1   29 1
     3    1   30 1
     4    1   31 1
     5    2    3 1
     6    3   12 ar
     7    3    4 ar
     8    4    5 ar
     9    4   32 1
    10    5    6 ar
    11    5   33 1
    12    6   11 ar
    13    6    7 ar
    14    7    8 ar
    15    7   34 1
    16    8    9 ar
    17    8   35 1
    18    9   10 ar
    19    9   36 1
    20   10   11 ar
    21   10   37 1
    22   11   12 ar
    23   12   13 1
    24   13   14 2
    25   13   38 1
    26   14   15 1
    27   15   19 1
    28   15   16 1
    29   16   17 2
    30   16   21 1
    31   17   18 1
    32   18   19 2
    33   19   20 1
    34   21   26 ar
    35   21   22 ar
    36   22   23 ar
    37   22   39 1
    38   23   24 ar
    39   23   40 1
    40   24   25 ar
    41   24   28 1
    42   25   26 ar
    43   25   41 1
    44   26   27 1
@<TRIPOS>MOLECULE
ZINC39870213
   40    42     0     0     0
SMALL
USER_CHARGES

@<TRIPOS>ATOM
      1 C1         -1.1152    1.4367    0.1081 C.3       1 <0>        -0.1062
      2 C2         -1.0494   -0.0689    0.1067 C.2       1 <0>        -0.0020
      3 C3         -0.7405   -0.7351    1.2467 C.2       1 <0>        -0.1843
      4 C4         -0.4377   -0.2116    2.6008 C.2       1 <0>         0.5324
      5 O1         -0.4375    0.9844    2.8438 O.2       1 <0>        -0.5309
      6 N1         -0.1699   -1.1075    3.5250 N.2       1 <0>        -0.7117
      7 C5         -0.1672   -2.4071    3.2749 C.2       1 <0>         0.4493
      8 S1         -0.5913   -2.4927    1.5421 S.3       1 <0>        -0.1158
      9 N2          0.0928   -3.4395    4.1395 N.2       1 <0>        -0.5397
     10 C6          0.2020   -3.1932    5.5040 C.ar      1 <0>         0.2273
     11 C7         -0.4105   -2.0791    6.0635 C.ar      1 <0>        -0.1704
     12 C8         -0.3004   -1.8365    7.4175 C.ar      1 <0>        -0.0711
     13 C9          0.4199   -2.6990    8.2288 C.ar      1 <0>        -0.1883
     14 C10         1.0344   -3.8091    7.6922 C.ar      1 <0>        -0.0507
     15 C11         0.9270   -4.0722    6.3238 C.ar      1 <0>        -0.1654
     16 C12         1.5766   -5.2610    5.7441 C.2       1 <0>         0.5004
     17 O2          1.4856   -5.4829    4.5528 O.2       1 <0>        -0.4731
     18 O3          2.2716   -6.1021    6.5350 O.3       1 <0>        -0.3656
     19 C13         2.8752   -7.2343    5.9059 C.3       1 <0>         0.0391
     20 C14        -1.3199   -0.8151   -1.1302 C.ar      1 <0>        -0.0261
     21 C15        -0.3067   -1.5701   -1.7320 C.ar      1 <0>        -0.0900
     22 C16        -0.5682   -2.2675   -2.8916 C.ar      1 <0>        -0.0870
     23 C17        -1.8300   -2.2223   -3.4617 C.ar      1 <0>        -0.0917
     24 C18        -2.8381   -1.4772   -2.8720 C.ar      1 <0>        -0.0906
     25 C19        -2.5936   -0.7790   -1.7091 C.ar      1 <0>        -0.0973
     26 Br1        -2.1779   -3.1819   -5.0536 Br        1 <0>        -0.0599
     27 H1         -0.1339    1.8435   -0.1361 H         1 <0>         0.0745
     28 H2         -1.8413    1.7693   -0.6337 H         1 <0>         0.0632
     29 H3         -1.4181    1.7862    1.0951 H         1 <0>         0.0928
     30 H4         -0.9733   -1.4019    5.4382 H         1 <0>         0.1456
     31 H5         -0.7782   -0.9687    7.8476 H         1 <0>         0.1145
     32 H6          0.5001   -2.4996    9.2872 H         1 <0>         0.1158
     33 H7          1.5947   -4.4777    8.3289 H         1 <0>         0.1260
     34 H8          3.4023   -7.8272    6.6534 H         1 <0>         0.0927
     35 H9          2.1029   -7.8441    5.4371 H         1 <0>         0.0547
     36 H10         3.5808   -6.8953    5.1474 H         1 <0>         0.0542
     37 H11         0.6777   -1.6058   -1.2891 H         1 <0>         0.1347
     38 H12         0.2126   -2.8506   -3.3572 H         1 <0>         0.1336
     39 H13        -3.8191   -1.4465   -3.3226 H         1 <0>         0.1328
     40 H14        -3.3817   -0.2022   -1.2481 H         1 <0>         0.1342
@<TRIPOS>BOND
     1    1    2 1
     2    1   27 1
     3    1   28 1
     4    1   29 1
     5    2    3 2
     6    2   20 1
     7    3    8 1
     8    3    4 1
     9    4    5 2
    10    4    6 1
    11    6    7 2
    12    7    8 1
    13    7    9 1
    14    9   10 1
    15   10   15 ar
    16   10   11 ar
    17   11   12 ar
    18   11   30 1
    19   12   13 ar
    20   12   31 1
    21   13   14 ar
    22   13   32 1
    23   14   15 ar
    24   14   33 1
    25   15   16 1
    26   16   17 2
    27   16   18 1
    28   18   19 1
    29   19   34 1
    30   19   35 1
    31   19   36 1
    32   20   25 ar
    33   20   21 ar
    34   21   22 ar
    35   21   37 1
    36   22   23 ar
    37   22   38 1
    38   23   24 ar
    39   23   26 1
    40   24   25 ar
    41   24   39 1
    42   25   40 1
@<TRIPOS>MOLECULE
ZINC19945694
   47    51     0     0     0
SMALL
USER_CHARGES

@<TRIPOS>ATOM
      1 C1         -0.0157    1.3539    0.0569 C.ar      1 <0>        -0.1218
      2 C2          1.1605    2.1011    0.0498 C.ar      1 <0>        -0.1005
      3 C3          2.3836    1.5062    0.0197 C.ar      1 <0>        -0.1192
      4 C4          2.4733    0.1044   -0.0049 C.ar      1 <0>        -0.0101
      5 C5          1.2394   -0.6835    0.0025 C.ar      1 <0>        -0.0618
      6 C6          0.0025   -0.0044    0.0342 C.ar      1 <0>        -0.0978
      7 C7          1.2932   -2.0780   -0.0219 C.ar      1 <0>        -0.0631
      8 C8          2.5277   -2.7286   -0.0536 C.ar      1 <0>        -0.0609
      9 C9          2.6062   -4.1376   -0.0792 C.ar      1 <0>        -0.1141
     10 C10         3.8233   -4.7404   -0.1103 C.ar      1 <0>        -0.1125
     11 C11         5.0050   -4.0019   -0.1172 C.ar      1 <0>        -0.1171
     12 C12         4.9965   -2.6417   -0.0931 C.ar      1 <0>        -0.1215
     13 C13         3.7710   -1.9555   -0.0614 C.ar      1 <0>        -0.0046
     14 C14         3.7267   -0.5447   -0.0368 C.ar      1 <0>        -0.0638
     15 C15         4.9633    0.2346   -0.0445 C.2       1 <0>         0.2056
     16 N1          6.1190   -0.3719    0.0395 N.2       1 <0>        -0.4742
     17 C16         7.2750    0.3565    0.0324 C.ar      1 <0>         0.1093
     18 C17         7.4438    1.3971   -0.8855 C.ar      1 <0>        -0.1717
     19 C18         8.6133    2.1278   -0.8867 C.ar      1 <0>        -0.0070
     20 C19         9.6186    1.8328    0.0175 C.ar      1 <0>        -0.6272
     21 C20         9.4589    0.8037    0.9289 C.ar      1 <0>        -0.0097
     22 C21         8.2923    0.0685    0.9466 C.ar      1 <0>        -0.1252
     23 S1         11.1095    2.7717    0.0078 S.o2      1 <0>         2.6357
     24 O1         12.1120    1.9479    0.5871 O.2       1 <0>        -1.0092
     25 O2         11.2350    3.3212   -1.2966 O.2       1 <0>        -1.0097
     26 N2         10.8911    4.0481    1.0400 N.2       1 <0>        -1.0314
     27 C22        11.9119    4.9655    1.2335 C.2       1 <0>         0.4011
     28 N3         13.1077    4.9864    0.6843 N.2       1 <0>        -0.6656
     29 C23        13.9754    5.9395    0.9758 C.2       1 <0>         0.1001
     30 C24        13.5774    6.8856    1.8598 C.2       1 <0>        -0.3452
     31 S2         11.9207    6.3274    2.2223 S.3       1 <0>         0.0106
     32 H1         -0.9655    1.8673    0.0857 H         1 <0>         0.1233
     33 H2          1.0996    3.1793    0.0682 H         1 <0>         0.1254
     34 H3          3.2803    2.1080    0.0145 H         1 <0>         0.1313
     35 H4         -0.9232   -0.5608    0.0407 H         1 <0>         0.1296
     36 H5          0.3795   -2.6538   -0.0158 H         1 <0>         0.1350
     37 H6          1.7048   -4.7325   -0.0738 H         1 <0>         0.1272
     38 H7          3.8763   -5.8189   -0.1298 H         1 <0>         0.1200
     39 H8          5.9511   -4.5222   -0.1419 H         1 <0>         0.1215
     40 H9          5.9265   -2.0925   -0.0987 H         1 <0>         0.1865
     41 H10         4.9227    1.3112   -0.1195 H         1 <0>         0.1193
     42 H11         6.6604    1.6279   -1.5922 H         1 <0>         0.1276
     43 H12         8.7451    2.9321   -1.5953 H         1 <0>         0.1409
     44 H13        10.2481    0.5787    1.6311 H         1 <0>         0.1438
     45 H14         8.1671   -0.7312    1.6616 H         1 <0>         0.1343
     46 H15        14.9585    5.9629    0.5294 H         1 <0>         0.1459
     47 H16        14.1133    7.7434    2.2383 H         1 <0>         0.1708
@<TRIPOS>BOND
     1    1    6 ar
     2    1    2 ar
     3    1   32 1
     4    2    3 ar
     5    2   33 1
     6    3    4 ar
     7    3   34 1
     8    4   14 ar
     9    4    5 ar
    10    5    6 ar
    11    5    7 ar
    12    6   35 1
    13    7    8 ar
    14    7   36 1
    15    8   13 ar
    16    8    9 ar
    17    9   10 ar
    18    9   37 1
    19   10   11 ar
    20   10   38 1
    21   11   12 ar
    22   11   39 1
    23   12   13 ar
    24   12   40 1
    25   13   14 ar
    26   14   15 1
    27   15   16 2
    28   15   41 1
    29   16   17 1
    30   17   22 ar
    31   17   18 ar
    32   18   19 ar
    33   18   42 1
    34   19   20 ar
    35   19   43 1
    36   20   21 ar
    37   20   23 1
    38   21   22 ar
    39   21   44 1
    40   22   45 1
    41   23   24 2
    42   23   25 2
    43   23   26 1
    44   26   27 1
    45   27   31 1
    46   27   28 2
    47   28   29 1
    48   29   30 2
    49   29   46 1
    50   30   31 1
    51   30   47 1
@<TRIPOS>MOLECULE
ZINC66586312
   37    38     0     0     0
SMALL
USER_CHARGES

@<TRIPOS>ATOM
      1 C1         -0.5011    1.4545    0.0811 C.3       1 <0>        -0.0970
      2 C2         -0.2298   -0.0272    0.0360 C.ar      1 <0>        -0.1270
      3 C3         -0.3300   -0.7111   -1.1588 C.ar      1 <0>        -0.0754
      4 C4         -0.0822   -2.0699   -1.2056 C.ar      1 <0>        -0.2301
      5 C5          0.2697   -2.7573   -0.0495 C.ar      1 <0>         0.2650
      6 C6          0.3730   -2.0794    1.1554 C.ar      1 <0>        -0.1439
      7 C7          0.1284   -0.7068    1.2013 C.ar      1 <0>        -0.1074
      8 C8          0.2428    0.0247    2.4812 C.2       1 <0>         0.5682
      9 O1          0.1404    1.2357    2.5003 O.2       1 <0>        -0.5489
     10 N1          0.4606   -0.6514    3.6266 N.am      1 <0>        -0.8561
     11 N2          0.5187   -4.1310   -0.1019 N.2       1 <0>        -1.0891
     12 S1          0.3947   -4.9406   -1.5411 S.o2      1 <0>         2.6001
     13 O2         -0.9753   -4.8961   -1.9155 O.2       1 <0>        -1.0254
     14 O3          1.4296   -4.4425   -2.3778 O.2       1 <0>        -1.0251
     15 C9          0.7750   -6.6313   -1.2222 C.ar      1 <0>        -0.6035
     16 C10         2.0821   -7.0736   -1.3144 C.ar      1 <0>        -0.0042
     17 C11         2.3837   -8.3980   -1.0656 C.ar      1 <0>        -0.1071
     18 C12         1.3720   -9.2866   -0.7218 C.ar      1 <0>        -0.0723
     19 C13         0.0597   -8.8384   -0.6297 C.ar      1 <0>        -0.1461
     20 C14        -0.2337   -7.5115   -0.8748 C.ar      1 <0>        -0.0003
     21 S2          1.7521  -10.9775   -0.4040 S.3       1 <0>        -0.0267
     22 C15         0.1461  -11.7209   -0.0055 C.3       1 <0>         0.4517
     23 F1         -0.7201  -11.5708   -1.0939 F         1 <0>        -0.1620
     24 F2          0.3176  -13.0817    0.2698 F         1 <0>        -0.1471
     25 F3         -0.3978  -11.0833    1.1147 F         1 <0>        -0.1609
     26 H1          0.4413    1.9985    0.0183 H         1 <0>         0.0554
     27 H2         -1.1380    1.7329   -0.7586 H         1 <0>         0.0421
     28 H3         -1.0030    1.7036    1.0160 H         1 <0>         0.0798
     29 H4         -0.6033   -0.1826   -2.0601 H         1 <0>         0.1112
     30 H5         -0.1626   -2.5997   -2.1433 H         1 <0>         0.1017
     31 H6          0.6458   -2.6115    2.0548 H         1 <0>         0.1173
     32 H7          0.5423   -1.6178    3.6113 H         1 <0>         0.4034
     33 H8          0.5356   -0.1715    4.4662 H         1 <0>         0.3961
     34 H9          2.8678   -6.3825   -1.5816 H         1 <0>         0.1501
     35 H10         3.4046   -8.7428   -1.1384 H         1 <0>         0.1387
     36 H11        -0.7290   -9.5261   -0.3628 H         1 <0>         0.1278
     37 H12        -1.2526   -7.1616   -0.7995 H         1 <0>         0.1472
@<TRIPOS>BOND
     1    1    2 1
     2    1   26 1
     3    1   27 1
     4    1   28 1
     5    2    7 ar
     6    2    3 ar
     7    3    4 ar
     8    3   29 1
     9    4    5 ar
    10    4   30 1
    11    5    6 ar
    12    5   11 1
    13    6    7 ar
    14    6   31 1
    15    7    8 1
    16    8    9 2
    17    8   10 am
    18   10   32 1
    19   10   33 1
    20   11   12 1
    21   12   13 2
    22   12   14 2
    23   12   15 1
    24   15   20 ar
    25   15   16 ar
    26   16   17 ar
    27   16   34 1
    28   17   18 ar
    29   17   35 1
    30   18   19 ar
    31   18   21 1
    32   19   20 ar
    33   19   36 1
    34   20   37 1
    35   21   22 1
    36   22   23 1
    37   22   24 1
    38   22   25 1
@<TRIPOS>MOLECULE
ZINC17096127
   61    63     0     0     0
SMALL
USER_CHARGES
(1S,6R)-6-[[(6S)-3-cyano-6-(1,1-dimethylpropyl)-4,5,6,7-tetrahydrobenzothiophen-2-yl]carbamoyl]-3,4-dimethyl-cyclohex-3-ene-1-carboxylic acid
@<TRIPOS>ATOM
      1 C1          9.6950    3.0509    1.9581 C.3       1 <0>        -0.1560
      2 C2          8.2105    2.7532    2.1787 C.3       1 <0>        -0.1164
      3 C3          7.3764    3.9507    1.7191 C.3       1 <0>        -0.0572
      4 C4          7.6296    4.2080    0.2323 C.3       1 <0>        -0.1504
      5 C5          7.7737    5.1886    2.5258 C.3       1 <0>        -0.1459
      6 C6          5.8920    3.6531    1.9397 C.3       1 <0>        -0.0699
      7 H1          5.7086    3.4631    2.9972 H         1 <0>         0.0756
      8 C7          5.0546    4.8502    1.4804 C.3       1 <0>        -0.1157
      9 C8          3.6010    4.6681    1.9206 C.3       1 <0>        -0.0598
     10 C9          3.1152    3.3011    1.4546 C.2       1 <0>        -0.0512
     11 C10         3.9914    2.3327    1.1069 C.2       1 <0>        -0.2294
     12 S1          2.9813    0.9544    0.6442 S.3       1 <0>         0.2358
     13 C11         1.4177    1.6525    0.9090 C.2       1 <0>         0.1286
     14 C12         1.7139    2.9361    1.3424 C.2       1 <0>        -0.1594
     15 C13         0.6760    3.8664    1.6712 C.1       1 <0>         0.2772
     16 N1         -0.1473    4.6044    1.9320 N.1       1 <0>        -0.4374
     17 N2          0.1711    1.0703    0.7258 N.am      1 <0>        -0.5982
     18 C14         0.0789   -0.2010    0.2877 C.2       1 <0>         0.5341
     19 O1          1.0853   -0.8362    0.0534 O.2       1 <0>        -0.4983
     20 C15        -1.2745   -0.8331    0.0888 C.3       1 <0>        -0.0829
     21 H2         -2.0206   -0.2922    0.6710 H         1 <0>         0.0948
     22 C16        -1.2308   -2.2948    0.5398 C.3       1 <0>        -0.0583
     23 C17        -0.4057   -3.1060   -0.4157 C.2       1 <0>        -0.1379
     24 C18        -0.0896   -2.7195   -1.6100 C.2       1 <0>        -0.0991
     25 C19        -0.4960   -1.4020   -2.2025 C.3       1 <0>        -0.0604
     26 C20        -1.6478   -0.7952   -1.3985 C.3       1 <0>        -0.1174
     27 H3         -2.5553   -1.3761   -1.5634 H         1 <0>         0.0878
     28 C21        -1.8696    0.6318   -1.8289 C.2       1 <0>         0.4663
     29 O2         -1.7431    1.5302   -1.0309 O.co2     1 <0>        -0.6404
     30 C22         0.7376   -3.6507   -2.4583 C.3       1 <0>        -0.1137
     31 C23         0.0859   -4.4544    0.0438 C.3       1 <0>        -0.1102
     32 C24         5.4863    2.4211    1.1173 C.3       1 <0>        -0.0274
     33 H4          9.8753    3.2342    0.8989 H         1 <0>         0.0565
     34 H5          9.9780    3.9328    2.5328 H         1 <0>         0.0548
     35 H6         10.2891    2.1978    2.2856 H         1 <0>         0.0495
     36 H7          8.0301    2.5699    3.2379 H         1 <0>         0.0609
     37 H8          7.9275    1.8713    1.6040 H         1 <0>         0.0655
     38 H9          7.0354    5.0611   -0.0951 H         1 <0>         0.0578
     39 H10         8.6871    4.4201    0.0751 H         1 <0>         0.0553
     40 H11         7.3465    3.3261   -0.3424 H         1 <0>         0.0599
     41 H12         7.5934    5.0053    3.5850 H         1 <0>         0.0534
     42 H13         8.8313    5.4007    2.3686 H         1 <0>         0.0561
     43 H14         7.1795    6.0418    2.1983 H         1 <0>         0.0583
     44 H15         5.0972    4.9263    0.3939 H         1 <0>         0.0693
     45 H16         5.4555    5.7620    1.9232 H         1 <0>         0.0714
     46 H17         2.9835    5.4472    1.4736 H         1 <0>         0.0724
     47 H18         3.5380    4.7274    3.0071 H         1 <0>         0.0756
     48 H19        -0.6337    1.5796    0.9093 H         1 <0>         0.4321
     49 H20        -0.7916   -2.3526    1.5357 H         1 <0>         0.0681
     50 H21        -2.2445   -2.6946    0.5682 H         1 <0>         0.0788
     51 H22         0.3545   -0.7205   -2.1854 H         1 <0>         0.0689
     52 H23        -0.8174   -1.5530   -3.2330 H         1 <0>         0.0755
     53 H24         0.2432   -4.6201   -2.5218 H         1 <0>         0.0583
     54 H25         0.8453   -3.2316   -3.4588 H         1 <0>         0.0554
     55 H26         1.7225   -3.7740   -2.0081 H         1 <0>         0.0631
     56 H27        -0.6046   -5.2273   -0.2939 H         1 <0>         0.0567
     57 H28         1.0747   -4.6426   -0.3744 H         1 <0>         0.0615
     58 H29         0.1430   -4.4687    1.1322 H         1 <0>         0.0523
     59 H30         5.9042    1.5228    1.5716 H         1 <0>         0.0776
     60 H31         5.8553    2.5228    0.0967 H         1 <0>         0.0841
     61 O3         -2.2077    0.9050   -3.0989 O.co2     1 <0>        -0.7565
@<TRIPOS>BOND
     1    1    2 1
     2    1   33 1
     3    1   34 1
     4    1   35 1
     5    2    3 1
     6    2   36 1
     7    2   37 1
     8    3    4 1
     9    3    5 1
    10    3    6 1
    11    4   38 1
    12    4   39 1
    13    4   40 1
    14    5   41 1
    15    5   42 1
    16    5   43 1
    17    6    7 1
    18    6   32 1
    19    6    8 1
    20    8    9 1
    21    8   44 1
    22    8   45 1
    23    9   10 1
    24    9   46 1
    25    9   47 1
    26   10   14 1
    27   10   11 2
    28   11   12 1
    29   11   32 1
    30   12   13 1
    31   13   14 2
    32   13   17 1
    33   14   15 1
    34   15   16 3
    35   17   18 am
    36   17   48 1
    37   18   19 2
    38   18   20 1
    39   20   21 1
    40   20   26 1
    41   20   22 1
    42   22   23 1
    43   22   49 1
    44   22   50 1
    45   23   24 2
    46   23   31 1
    47   24   25 1
    48   24   30 1
    49   25   26 1
    50   25   51 1
    51   25   52 1
    52   26   27 1
    53   26   28 1
    54   28   29 2
    55   28   61 1
    56   30   53 1
    57   30   54 1
    58   30   55 1
    59   31   56 1
    60   31   57 1
    61   31   58 1
    62   32   59 1
    63   32   60 1
@<TRIPOS>MOLECULE
ZINC03373942
   35    37     0     0     0
SMALL
USER_CHARGES
4-[[(Z)-2-bromo-3-phenyl-prop-2-enylidene]amino]-3-(2,4-dichlorophenyl)-1H-1,2,4-triazole-5-thione
@<TRIPOS>ATOM
      1 C1         -4.8409    0.3895   -0.2939 C.ar      1 <0>        -0.1035
      2 C2         -4.8270    1.6308    0.3181 C.ar      1 <0>        -0.1310
      3 C3         -3.6480    2.3378    0.4247 C.ar      1 <0>        -0.0877
      4 C4         -2.4642    1.7975   -0.0876 C.ar      1 <0>        -0.0863
      5 C5         -2.4875    0.5450   -0.7093 C.ar      1 <0>        -0.0850
      6 C6         -3.6734   -0.1522   -0.8030 C.ar      1 <0>        -0.1252
      7 C7         -1.2017    2.5457    0.0216 C.2       1 <0>        -0.0070
      8 C8         -0.0408    1.8856    0.2187 C.2       1 <0>        -0.0976
      9 C9          1.1918    2.5847    0.1570 C.2       1 <0>         0.1578
     10 N1          2.3124    1.9467    0.3419 N.2       1 <0>        -0.2097
     11 N2          3.5299    2.6372    0.2809 N.pl3     1 <0>        -0.3746
     12 C10         4.1707    3.2442    1.3442 C.2       1 <0>         0.1891
     13 N3          5.2747    3.7851    0.9082 N.2       1 <0>        -0.2658
     14 N4          5.3678    3.5326   -0.4672 N.2       1 <0>        -0.3669
     15 C11         4.2805    2.8185   -0.8239 C.2       1 <0>         0.3981
     16 S1          3.9175    2.2485   -2.3968 S.3       1 <0>        -0.7519
     17 C12         3.6865    3.2750    2.7416 C.ar      1 <0>         0.0213
     18 C13         2.4805    2.6594    3.0788 C.ar      1 <0>        -0.0984
     19 C14         2.0366    2.6863    4.3844 C.ar      1 <0>        -0.1000
     20 C15         2.7794    3.3325    5.3586 C.ar      1 <0>        -0.0271
     21 C16         3.9738    3.9501    5.0301 C.ar      1 <0>        -0.1020
     22 C17         4.4314    3.9251    3.7274 C.ar      1 <0>        -0.0048
     23 Cl1         5.9298    4.6995    3.3166 Cl        1 <0>        -0.0167
     24 Cl2         2.2104    3.3674    6.9983 Cl        1 <0>        -0.0645
     25 Br1        -0.0574    0.0275    0.5695 Br        1 <0>        -0.0208
     26 H1         -5.7675   -0.1595   -0.3743 H         1 <0>         0.1217
     27 H2         -5.7420    2.0465    0.7135 H         1 <0>         0.1237
     28 H3         -3.6387    3.3061    0.9029 H         1 <0>         0.1269
     29 H4         -1.5781    0.1229   -1.1110 H         1 <0>         0.1386
     30 H5         -3.6922   -1.1216   -1.2788 H         1 <0>         0.1252
     31 H6         -1.2040    3.6429   -0.0574 H         1 <0>         0.1549
     32 H7          1.2015    3.6656   -0.0470 H         1 <0>         0.1337
     33 H8          1.8977    2.1592    2.3195 H         1 <0>         0.1471
     34 H9          1.1057    2.2059    4.6469 H         1 <0>         0.1416
     35 H10         4.5486    4.4528    5.7939 H         1 <0>         0.1469
@<TRIPOS>BOND
     1    1    6 ar
     2    1    2 ar
     3    1   26 1
     4    2    3 ar
     5    2   27 1
     6    3    4 ar
     7    3   28 1
     8    4    5 ar
     9    4    7 1
    10    5    6 ar
    11    5   29 1
    12    6   30 1
    13    7    8 2
    14    7   31 1
    15    8    9 1
    16    8   25 1
    17    9   10 2
    18    9   32 1
    19   10   11 1
    20   11   15 1
    21   11   12 1
    22   12   13 2
    23   12   17 1
    24   13   14 1
    25   14   15 2
    26   15   16 1
    27   17   22 ar
    28   17   18 ar
    29   18   19 ar
    30   18   33 1
    31   19   20 ar
    32   19   34 1
    33   20   21 ar
    34   20   24 1
    35   21   22 ar
    36   21   35 1
    37   22   23 1
@<TRIPOS>MOLECULE
ZINC39556907
   57    61     0     0     0
SMALL
USER_CHARGES

@<TRIPOS>ATOM
      1 C1         -3.4760    0.2334   -1.0788 C.3       1 <0>        -0.1686
      2 C2         -3.3939   -1.2387   -1.4874 C.3       1 <0>        -0.0754
      3 C3         -4.4663   -1.5387   -2.5029 C.ar      1 <0>        -0.0600
      4 C4         -5.6803   -2.0559   -2.0942 C.ar      1 <0>        -0.1158
      5 C5         -6.6645   -2.3314   -3.0252 C.ar      1 <0>        -0.1171
      6 C6         -6.4370   -2.0907   -4.3680 C.ar      1 <0>        -0.1197
      7 C7         -5.2253   -1.5738   -4.7826 C.ar      1 <0>        -0.0962
      8 C8         -4.2372   -1.2903   -3.8492 C.ar      1 <0>         0.1698
      9 N1         -3.0085   -0.7597   -4.2664 N.am      1 <0>        -0.5343
     10 C9         -1.9200   -1.4743   -4.6262 C.2       1 <0>         0.5124
     11 O1         -1.8107   -2.6875   -4.6536 O.2       1 <0>        -0.5089
     12 C10        -0.8959   -0.4815   -4.9784 C.2       1 <0>        -0.0195
     13 C11         0.3913   -0.7325   -5.4095 C.2       1 <0>         0.0053
     14 C12         0.8964   -2.0564   -5.3992 C.2       1 <0>        -0.1631
     15 C13         0.6394   -3.0327   -4.4601 C.2       1 <0>         0.1320
     16 N2          1.3038   -4.1672   -4.7940 N.pl3     1 <0>        -0.4666
     17 C14         2.0203   -3.9839   -5.9592 C.ar      1 <0>         0.0923
     18 C15         1.7978   -2.6681   -6.3953 C.ar      1 <0>        -0.0758
     19 C16         2.3996   -2.2077   -7.5628 C.ar      1 <0>        -0.0732
     20 C17         3.2118   -3.0508   -8.2904 C.ar      1 <0>        -0.1474
     21 C18         3.4301   -4.3522   -7.8634 C.ar      1 <0>        -0.1106
     22 C19         2.8469   -4.8182   -6.7050 C.ar      1 <0>        -0.1260
     23 C20         1.2667   -5.4133   -4.0244 C.3       1 <0>         0.1495
     24 C21         2.4467   -5.4609   -3.0883 C.ar      1 <0>        -0.1073
     25 C22         3.6396   -6.0201   -3.5076 C.ar      1 <0>        -0.1040
     26 C23         4.7219   -6.0637   -2.6491 C.ar      1 <0>        -0.1174
     27 C24         4.6118   -5.5479   -1.3711 C.ar      1 <0>        -0.1145
     28 C25         3.4196   -4.9881   -0.9522 C.ar      1 <0>        -0.0858
     29 C26         2.3382   -4.9405   -1.8125 C.ar      1 <0>        -0.0991
     30 C27         3.2994   -4.4262    0.4409 C.3       1 <0>        -0.1160
     31 N3         -1.4785    0.7430   -4.7927 N.2       1 <0>        -0.5449
     32 C28        -2.7081    0.5756   -4.3846 C.2       1 <0>         0.4949
     33 S1         -3.8298    1.8870   -4.0289 S.3       1 <0>        -0.7554
     34 H1         -2.7004    0.4504   -0.3443 H         1 <0>         0.0439
     35 H2         -3.3312    0.8628   -1.9569 H         1 <0>         0.1044
     36 H3         -4.4549    0.4358   -0.6441 H         1 <0>         0.0495
     37 H4         -2.4151   -1.4411   -1.9221 H         1 <0>         0.0576
     38 H5         -3.5387   -1.8681   -0.6094 H         1 <0>         0.0627
     39 H6         -5.8606   -2.2456   -1.0464 H         1 <0>         0.1222
     40 H7         -7.6128   -2.7357   -2.7033 H         1 <0>         0.1209
     41 H8         -7.2074   -2.3076   -5.0931 H         1 <0>         0.1227
     42 H9         -5.0481   -1.3864   -5.8313 H         1 <0>         0.1189
     43 H10         1.0133    0.0801   -5.7546 H         1 <0>         0.1331
     44 H11         0.0074   -2.9125   -3.5926 H         1 <0>         0.1698
     45 H12         2.2307   -1.1948   -7.8973 H         1 <0>         0.1224
     46 H13         3.6799   -2.6966   -9.1969 H         1 <0>         0.1192
     47 H14         4.0682   -5.0046   -8.4409 H         1 <0>         0.1196
     48 H15         3.0220   -5.8340   -6.3826 H         1 <0>         0.1122
     49 H16         0.3431   -5.4564   -3.4471 H         1 <0>         0.1004
     50 H17         1.3091   -6.2628   -4.7060 H         1 <0>         0.0939
     51 H18         3.7256   -6.4230   -4.5059 H         1 <0>         0.1208
     52 H19         5.6535   -6.5012   -2.9765 H         1 <0>         0.1229
     53 H20         5.4573   -5.5826   -0.7001 H         1 <0>         0.1216
     54 H21         1.4078   -4.4997   -1.4864 H         1 <0>         0.1224
     55 H22         3.5806   -3.3731    0.4335 H         1 <0>         0.0723
     56 H23         2.2698   -4.5249    0.7850 H         1 <0>         0.0673
     57 H24         3.9608   -4.9742    1.1120 H         1 <0>         0.0659
@<TRIPOS>BOND
     1    1    2 1
     2    1   34 1
     3    1   35 1
     4    1   36 1
     5    2    3 1
     6    2   37 1
     7    2   38 1
     8    3    8 ar
     9    3    4 ar
    10    4    5 ar
    11    4   39 1
    12    5    6 ar
    13    5   40 1
    14    6    7 ar
    15    6   41 1
    16    7    8 ar
    17    7   42 1
    18    8    9 1
    19    9   32 1
    20    9   10 am
    21   10   11 2
    22   10   12 1
    23   12   13 2
    24   12   31 1
    25   13   14 1
    26   13   43 1
    27   14   18 1
    28   14   15 2
    29   15   16 1
    30   15   44 1
    31   16   17 1
    32   16   23 1
    33   17   22 ar
    34   17   18 ar
    35   18   19 ar
    36   19   20 ar
    37   19   45 1
    38   20   21 ar
    39   20   46 1
    40   21   22 ar
    41   21   47 1
    42   22   48 1
    43   23   24 1
    44   23   49 1
    45   23   50 1
    46   24   29 ar
    47   24   25 ar
    48   25   26 ar
    49   25   51 1
    50   26   27 ar
    51   26   52 1
    52   27   28 ar
    53   27   53 1
    54   28   29 ar
    55   28   30 1
    56   29   54 1
    57   30   55 1
    58   30   56 1
    59   30   57 1
    60   31   32 2
    61   32   33 1
@<TRIPOS>MOLECULE
ZINC27500934
   51    55     0     0     0
SMALL
USER_CHARGES

@<TRIPOS>ATOM
      1 C1         -0.0167    1.3794    0.0096 C.ar      1 <0>        -0.1235
      2 C2          1.1706    2.0897    0.0021 C.ar      1 <0>        -0.1210
      3 C3          2.3784    1.4244   -0.0130 C.ar      1 <0>        -0.1047
      4 C4          2.4052    0.0277   -0.0208 C.ar      1 <0>        -0.0395
      5 C5          1.2048   -0.6781   -0.0131 C.ar      1 <0>        -0.0951
      6 C6          0.0021   -0.0041    0.0020 C.ar      1 <0>        -0.1009
      7 C7          1.5416   -2.1490   -0.0248 C.3       1 <0>        -0.0419
      8 C8          3.0487   -2.2316   -0.0399 C.ar      1 <0>        -0.0709
      9 C9          3.5405   -0.9266   -0.0373 C.ar      1 <0>        -0.0988
     10 C10         4.9215   -0.7091   -0.0495 C.ar      1 <0>        -0.0717
     11 C11         5.7893   -1.7763   -0.0640 C.ar      1 <0>        -0.1724
     12 C12         5.2933   -3.0831   -0.0666 C.ar      1 <0>         0.1281
     13 C13         3.9121   -3.3015   -0.0551 C.ar      1 <0>        -0.1006
     14 N1          6.1555   -4.1440   -0.0813 N.2       1 <0>        -0.4571
     15 C14         7.1787   -4.1417   -0.8902 C.2       1 <0>         0.2311
     16 C15         8.1057   -5.2824   -0.9059 C.ar      1 <0>        -0.2204
     17 C16         9.2077   -5.2819   -1.7676 C.ar      1 <0>         0.0144
     18 C17        10.0726   -6.3544   -1.7765 C.ar      1 <0>        -0.2261
     19 C18         9.8560   -7.4344   -0.9361 C.ar      1 <0>         0.0277
     20 C19         8.7716   -7.4485   -0.0804 C.ar      1 <0>        -0.1981
     21 C20         7.8940   -6.3762   -0.0525 C.ar      1 <0>         0.3286
     22 O1          6.8316   -6.3865    0.7918 O.3       1 <0>        -0.5782
     23 N2          8.5499   -8.6083    0.8122 N.pl3     1 <0>         0.0706
     24 O2          9.3174   -9.5421    0.7920 O.2       1 <0>        -0.2598
     25 O3          7.6012   -8.6217    1.5615 O.3       1 <0>        -0.1597
     26 C21        11.2595   -6.3530   -2.7051 C.3       1 <0>        -0.0217
     27 C22        12.4408   -5.7273   -2.0095 C.ar      1 <0>        -0.0579
     28 C23        12.7134   -4.3833   -2.1837 C.ar      1 <0>        -0.1060
     29 C24        13.7969   -3.8092   -1.5457 C.ar      1 <0>        -0.1157
     30 C25        14.6086   -4.5787   -0.7329 C.ar      1 <0>        -0.1196
     31 C26        14.3371   -5.9224   -0.5579 C.ar      1 <0>        -0.1100
     32 C27        13.2492   -6.4964   -1.1919 C.ar      1 <0>        -0.0338
     33 Cl1        12.9036   -8.1827   -0.9673 Cl        1 <0>        -0.0602
     34 H1         -0.9596    1.9057    0.0260 H         1 <0>         0.1234
     35 H2          1.1514    3.1695    0.0077 H         1 <0>         0.1225
     36 H3          3.3029    1.9826   -0.0192 H         1 <0>         0.1201
     37 H4         -0.9260   -0.5564    0.0083 H         1 <0>         0.1226
     38 H5          1.1483   -2.6311    0.8702 H         1 <0>         0.0999
     39 H6          1.1309   -2.6210   -0.9173 H         1 <0>         0.0987
     40 H7          5.3079    0.2994   -0.0478 H         1 <0>         0.1179
     41 H8          6.8554   -1.6042   -0.0738 H         1 <0>         0.1226
     42 H9          3.5240   -4.3094   -0.0567 H         1 <0>         0.1306
     43 H10         7.3448   -3.3017   -1.5484 H         1 <0>         0.0908
     44 H11         9.3800   -4.4425   -2.4249 H         1 <0>         0.1157
     45 H12        10.5391   -8.2708   -0.9504 H         1 <0>         0.1294
     46 H13        11.5034   -7.3779   -2.9845 H         1 <0>         0.0797
     47 H14        11.0195   -5.7796   -3.6005 H         1 <0>         0.0794
     48 H15        12.0799   -3.7818   -2.8188 H         1 <0>         0.1299
     49 H16        14.0097   -2.7593   -1.6824 H         1 <0>         0.1250
     50 H17        15.4552   -4.1297   -0.2349 H         1 <0>         0.1268
     51 H18        14.9714   -6.5234    0.0767 H         1 <0>         0.1298
@<TRIPOS>BOND
     1    1    6 ar
     2    1    2 ar
     3    1   34 1
     4    2    3 ar
     5    2   35 1
     6    3    4 ar
     7    3   36 1
     8    4    9 1
     9    4    5 ar
    10    5    6 ar
    11    5    7 1
    12    6   37 1
    13    7    8 1
    14    7   38 1
    15    7   39 1
    16    8   13 ar
    17    8    9 ar
    18    9   10 ar
    19   10   11 ar
    20   10   40 1
    21   11   12 ar
    22   11   41 1
    23   12   13 ar
    24   12   14 1
    25   13   42 1
    26   14   15 2
    27   15   16 1
    28   15   43 1
    29   16   21 ar
    30   16   17 ar
    31   17   18 ar
    32   17   44 1
    33   18   19 ar
    34   18   26 1
    35   19   20 ar
    36   19   45 1
    37   20   21 ar
    38   20   23 1
    39   21   22 1
    40   23   24 2
    41   23   25 1
    42   26   27 1
    43   26   46 1
    44   26   47 1
    45   27   32 ar
    46   27   28 ar
    47   28   29 ar
    48   28   48 1
    49   29   30 ar
    50   29   49 1
    51   30   31 ar
    52   30   50 1
    53   31   32 ar
    54   31   51 1
    55   32   33 1
@<TRIPOS>MOLECULE
ZINC59391313
   57    60     0     0     0
SMALL
USER_CHARGES

@<TRIPOS>ATOM
      1 C1         -0.0184    1.5028    0.0103 C.3       1 <0>        -0.1092
      2 C2          0.0021   -0.0041    0.0020 C.ar      1 <0>        -0.0847
      3 C3          0.0058   -0.6876   -1.2003 C.ar      1 <0>        -0.1203
      4 C4          0.0245   -2.0684   -1.2111 C.ar      1 <0>        -0.0898
      5 C5          0.0401   -2.7705   -0.0132 C.ar      1 <0>         0.1587
      6 C6          0.0368   -2.0816    1.1920 C.ar      1 <0>        -0.0586
      7 C7          0.0229   -0.7003    1.1963 C.ar      1 <0>        -0.1170
      8 C8          0.0536   -2.8399    2.4942 C.3       1 <0>        -0.1131
      9 N1          0.0586   -4.1717   -0.0209 N.am      1 <0>        -0.5049
     10 C9         -1.1136   -4.8623   -0.0241 C.2       1 <0>         0.5060
     11 O1         -2.2790   -4.2102   -0.0203 O.3       1 <0>        -0.6310
     12 C10        -1.0883   -6.2506   -0.0317 C.2       1 <0>        -0.4342
     13 C11         0.1385   -6.9012   -0.0360 C.2       1 <0>         0.5076
     14 O2          0.1929   -8.2355   -0.0438 O.2       1 <0>        -0.6288
     15 N2          1.2846   -6.1681   -0.0326 N.am      1 <0>        -0.5047
     16 C12         1.2354   -4.8237   -0.0307 C.2       1 <0>         0.7026
     17 O3          2.2715   -4.1874   -0.0332 O.2       1 <0>        -0.5539
     18 C13         2.5259   -6.8185   -0.0369 C.ar      1 <0>         0.1589
     19 C14         3.1441   -7.1297   -1.2407 C.ar      1 <0>        -0.0897
     20 C15         4.3673   -7.7706   -1.2417 C.ar      1 <0>        -0.1204
     21 C16         4.9764   -8.1030   -0.0453 C.ar      1 <0>        -0.0847
     22 C17         4.3631   -7.7949    1.1549 C.ar      1 <0>        -0.1171
     23 C18         3.1426   -7.1479    1.1624 C.ar      1 <0>        -0.0586
     24 C19         2.4780   -6.8064    2.4711 C.3       1 <0>        -0.1097
     25 C20         6.3110   -8.8028   -0.0500 C.3       1 <0>        -0.1092
     26 C21        -2.3725   -7.0392   -0.0348 C.3       1 <0>         0.0412
     27 C22        -2.7371   -7.3999   -1.4519 C.ar      1 <0>        -0.0517
     28 C23        -3.5238   -6.5457   -2.2019 C.ar      1 <0>        -0.1121
     29 C24        -3.8583   -6.8765   -3.5017 C.ar      1 <0>        -0.1322
     30 C25        -3.4056   -8.0612   -4.0518 C.ar      1 <0>        -0.1425
     31 C26        -2.6182   -8.9149   -3.3021 C.ar      1 <0>        -0.1321
     32 C27        -2.2802   -8.5821   -2.0037 C.ar      1 <0>        -0.1065
     33 H1          1.0042    1.8801    0.0026 H         1 <0>         0.0678
     34 H2         -0.5455    1.8639   -0.8728 H         1 <0>         0.0645
     35 H3         -0.5286    1.8543    0.9071 H         1 <0>         0.0643
     36 H4         -0.0064   -0.1409   -2.1316 H         1 <0>         0.1235
     37 H5          0.0266   -2.6016   -2.1503 H         1 <0>         0.1204
     38 H6          0.0241   -0.1637    2.1336 H         1 <0>         0.1238
     39 H7          1.0852   -3.0087    2.8030 H         1 <0>         0.0688
     40 H8         -0.4643   -2.2606    3.2587 H         1 <0>         0.0681
     41 H9         -0.4479   -3.7987    2.3629 H         1 <0>         0.0671
     42 H10         2.6686   -6.8710   -2.1753 H         1 <0>         0.1202
     43 H11         4.8486   -8.0129   -2.1777 H         1 <0>         0.1234
     44 H12         4.8410   -8.0560    2.0875 H         1 <0>         0.1238
     45 H13         1.8408   -7.6343    2.7819 H         1 <0>         0.0758
     46 H14         3.2399   -6.6294    3.2302 H         1 <0>         0.0660
     47 H15         1.8725   -5.9084    2.3477 H         1 <0>         0.0590
     48 H16         7.1100   -8.0615   -0.0412 H         1 <0>         0.0678
     49 H17         6.3926   -9.4354    0.8339 H         1 <0>         0.0643
     50 H18         6.3957   -9.4178   -0.9459 H         1 <0>         0.0644
     51 H19        -2.2411   -7.9499    0.5495 H         1 <0>         0.0625
     52 H20        -3.1691   -6.4381    0.4035 H         1 <0>         0.0675
     53 H21        -3.8775   -5.6202   -1.7721 H         1 <0>         0.1230
     54 H22        -4.4735   -6.2096   -4.0874 H         1 <0>         0.1100
     55 H23        -3.6675   -8.3200   -5.0671 H         1 <0>         0.1083
     56 H24        -2.2648   -9.8406   -3.7317 H         1 <0>         0.1100
     57 H25        -1.6619   -9.2473   -1.4192 H         1 <0>         0.1272
@<TRIPOS>BOND
     1    1    2 1
     2    1   33 1
     3    1   34 1
     4    1   35 1
     5    2    7 ar
     6    2    3 ar
     7    3    4 ar
     8    3   36 1
     9    4    5 ar
    10    4   37 1
    11    5    6 ar
    12    5    9 1
    13    6    7 ar
    14    6    8 1
    15    7   38 1
    16    8   39 1
    17    8   40 1
    18    8   41 1
    19    9   16 am
    20    9   10 1
    21   10   11 1
    22   10   12 2
    23   12   13 1
    24   12   26 1
    25   13   14 2
    26   13   15 am
    27   15   16 am
    28   15   18 1
    29   16   17 2
    30   18   23 ar
    31   18   19 ar
    32   19   20 ar
    33   19   42 1
    34   20   21 ar
    35   20   43 1
    36   21   22 ar
    37   21   25 1
    38   22   23 ar
    39   22   44 1
    40   23   24 1
    41   24   45 1
    42   24   46 1
    43   24   47 1
    44   25   48 1
    45   25   49 1
    46   25   50 1
    47   26   27 1
    48   26   51 1
    49   26   52 1
    50   27   32 ar
    51   27   28 ar
    52   28   29 ar
    53   28   53 1
    54   29   30 ar
    55   29   54 1
    56   30   31 ar
    57   30   55 1
    58   31   32 ar
    59   31   56 1
    60   32   57 1
@<TRIPOS>MOLECULE
ZINC04136060
   65    66     0     0     0
SMALL
USER_CHARGES
4-phenyl-4-[2-[4-(1,1,3,3-tetramethylbutyl)phenoxy]acetyl]aminoimino-butanoic acid
@<TRIPOS>ATOM
      1 C1          2.2280   -4.2227   -1.0517 C.3       1 <0>        -0.1681
      2 C2          2.8003   -3.6818    0.2601 C.3       1 <0>        -0.0639
      3 C3          4.2415   -4.1677    0.4265 C.3       1 <0>        -0.1427
      4 C4          1.9541   -4.1845    1.4315 C.3       1 <0>        -0.1777
      5 C5          2.7777   -2.1522    0.2341 C.3       1 <0>        -0.1053
      6 C6          1.4420   -1.6715   -0.3368 C.3       1 <0>        -0.0129
      7 C7          0.3028   -2.4931    0.2700 C.3       1 <0>        -0.1641
      8 C8          1.4442   -1.8472   -1.8567 C.3       1 <0>        -0.1751
      9 C9          1.2464   -0.2158    0.0004 C.ar      1 <0>        -0.1069
     10 C10         0.1024    0.4409   -0.4141 C.ar      1 <0>        -0.0765
     11 C11        -0.0796    1.7752   -0.1059 C.ar      1 <0>        -0.1449
     12 C12         0.8868    2.4562    0.6201 C.ar      1 <0>         0.1254
     13 C13         2.0335    1.7949    1.0352 C.ar      1 <0>        -0.2063
     14 C14         2.2109    0.4607    0.7240 C.ar      1 <0>        -0.0813
     15 O1          0.7103    3.7690    0.9241 O.3       1 <0>        -0.2890
     16 C15         1.7464    4.4061    1.6742 C.3       1 <0>         0.0466
     17 C16         1.3787    5.8477    1.9146 C.2       1 <0>         0.5344
     18 O2          0.3322    6.2863    1.4857 O.2       1 <0>        -0.4890
     19 N1          2.2125    6.6495    2.6062 N.am      1 <0>        -0.5779
     20 N2          1.8707    7.9897    2.8297 N.2       1 <0>        -0.2381
     21 C17         2.6734    8.7616    3.4955 C.2       1 <0>         0.1502
     22 C18         3.9735    8.2167    4.0283 C.3       1 <0>        -0.1020
     23 C19         5.0729    8.4052    2.9811 C.3       1 <0>        -0.1510
     24 C20         6.3730    7.8602    3.5139 C.2       1 <0>         0.4609
     25 O3          6.4158    7.3712    4.6179 O.co2     1 <0>        -0.6386
     26 C21         2.3136   10.1724    3.7308 C.ar      1 <0>        -0.0412
     27 C22         3.1727   11.0049    4.4520 C.ar      1 <0>        -0.0865
     28 C23         2.8323   12.3248    4.6632 C.ar      1 <0>        -0.1246
     29 C24         1.6378   12.8217    4.1725 C.ar      1 <0>        -0.1084
     30 C25         0.7793   12.0014    3.4622 C.ar      1 <0>        -0.1294
     31 C26         1.1093   10.6809    3.2384 C.ar      1 <0>        -0.0805
     32 H1          2.8035   -3.8284   -1.8892 H         1 <0>         0.0607
     33 H2          2.2856   -5.3112   -1.0517 H         1 <0>         0.0473
     34 H3          1.1871   -3.9139   -1.1486 H         1 <0>         0.0865
     35 H4          4.6493   -3.7824    1.3610 H         1 <0>         0.0538
     36 H5          4.2576   -5.2575    0.4451 H         1 <0>         0.0524
     37 H6          4.8444   -3.8096   -0.4080 H         1 <0>         0.0535
     38 H7          0.9021   -3.9777    1.2348 H         1 <0>         0.0897
     39 H8          2.0975   -5.2586    1.5486 H         1 <0>         0.0475
     40 H9          2.2599   -3.6753    2.3454 H         1 <0>         0.0525
     41 H10         3.5925   -1.7873   -0.3914 H         1 <0>         0.0653
     42 H11         2.8984   -1.7697    1.2476 H         1 <0>         0.0687
     43 H12        -0.6517   -2.1213   -0.1025 H         1 <0>         0.0510
     44 H13         0.4198   -3.5397   -0.0114 H         1 <0>         0.0883
     45 H14         0.3288   -2.4037    1.3560 H         1 <0>         0.0621
     46 H15         2.3446   -1.3958   -2.2733 H         1 <0>         0.0542
     47 H16         1.4245   -2.9096   -2.0997 H         1 <0>         0.0922
     48 H17         0.5650   -1.3613   -2.2798 H         1 <0>         0.0516
     49 H18        -0.6497   -0.0898   -0.9790 H         1 <0>         0.1268
     50 H19        -0.9712    2.2889   -0.4338 H         1 <0>         0.1308
     51 H20         2.7872    2.3229    1.6005 H         1 <0>         0.1292
     52 H21         3.1036   -0.0545    1.0467 H         1 <0>         0.1302
     53 H22         1.8676    3.8977    2.6307 H         1 <0>         0.0983
     54 H23         2.6813    4.3579    1.1160 H         1 <0>         0.0999
     55 H24         3.0493    6.2987    2.9491 H         1 <0>         0.3935
     56 H25         4.2446    8.7496    4.9396 H         1 <0>         0.0944
     57 H26         3.8595    7.1552    4.2484 H         1 <0>         0.0742
     58 H27         4.8018    7.8722    2.0697 H         1 <0>         0.0621
     59 H28         5.1869    9.4666    2.7610 H         1 <0>         0.0741
     60 H29         4.1031   10.6170    4.8397 H         1 <0>         0.1354
     61 H30         3.4977   12.9707    5.2168 H         1 <0>         0.1266
     62 H31         1.3742   13.8547    4.3451 H         1 <0>         0.1215
     63 H32        -0.1516   12.3958    3.0823 H         1 <0>         0.1235
     64 H33         0.4382   10.0417    2.6840 H         1 <0>         0.1338
     65 O4          7.4833    7.9180    2.7619 O.co2     1 <0>        -0.7673
@<TRIPOS>BOND
     1    1    2 1
     2    1   32 1
     3    1   33 1
     4    1   34 1
     5    2    3 1
     6    2    4 1
     7    2    5 1
     8    3   35 1
     9    3   36 1
    10    3   37 1
    11    4   38 1
    12    4   39 1
    13    4   40 1
    14    5    6 1
    15    5   41 1
    16    5   42 1
    17    6    7 1
    18    6    8 1
    19    6    9 1
    20    7   43 1
    21    7   44 1
    22    7   45 1
    23    8   46 1
    24    8   47 1
    25    8   48 1
    26    9   14 ar
    27    9   10 ar
    28   10   11 ar
    29   10   49 1
    30   11   12 ar
    31   11   50 1
    32   12   13 ar
    33   12   15 1
    34   13   14 ar
    35   13   51 1
    36   14   52 1
    37   15   16 1
    38   16   17 1
    39   16   53 1
    40   16   54 1
    41   17   18 2
    42   17   19 am
    43   19   20 1
    44   19   55 1
    45   20   21 2
    46   21   22 1
    47   21   26 1
    48   22   23 1
    49   22   56 1
    50   22   57 1
    51   23   24 1
    52   23   58 1
    53   23   59 1
    54   24   25 2
    55   24   65 1
    56   26   31 ar
    57   26   27 ar
    58   27   28 ar
    59   27   60 1
    60   28   29 ar
    61   28   61 1
    62   29   30 ar
    63   29   62 1
    64   30   31 ar
    65   30   63 1
    66   31   64 1
@<TRIPOS>MOLECULE
ZINC27579407
   52    55     0     0     0
SMALL
USER_CHARGES
(2S)-2-[[5-(benzofuran-2-yl)-4-benzyl-1,2,4-triazol-3-yl]sulfanyl]hexanoic acid
@<TRIPOS>ATOM
      1 C1         -0.2474    7.2125    2.4178 C.3       1 <0>        -0.1512
      2 C2         -0.4023    5.6930    2.3289 C.3       1 <0>        -0.1248
      3 C3          0.4938    5.1534    1.2123 C.3       1 <0>        -0.1248
      4 C4          0.3388    3.6339    1.1234 C.3       1 <0>        -0.0878
      5 C5          1.2350    3.0943    0.0069 C.3       1 <0>        -0.1235
      6 H1          2.2616    3.3172    0.3329 H         1 <0>         0.1027
      7 C6          1.1765    1.5884   -0.0006 C.2       1 <0>         0.4665
      8 O1          2.1986    0.9442   -0.0139 O.co2     1 <0>        -0.6010
      9 O2         -0.0110    0.9628    0.0073 O.co2     1 <0>        -0.7573
     10 S1          0.6599    3.7284   -1.5879 S.3       1 <0>         0.0358
     11 C7          1.9216    3.0948   -2.6421 C.2       1 <0>         0.1802
     12 N1          2.9550    2.3703   -2.2728 N.2       1 <0>        -0.2357
     13 N2          3.6774    2.0772   -3.2943 N.2       1 <0>        -0.2368
     14 C8          3.1495    2.5972   -4.3809 C.2       1 <0>         0.2133
     15 N3          2.0048    3.2601   -3.9953 N.pl3     1 <0>        -0.4556
     16 C9          1.0728    3.9920   -4.8567 C.3       1 <0>         0.1449
     17 C10         1.5095    5.4306   -4.9611 C.ar      1 <0>        -0.1160
     18 C11         1.0365    6.3637   -4.0575 C.ar      1 <0>        -0.0902
     19 C12         1.4408    7.6824   -4.1503 C.ar      1 <0>        -0.1219
     20 C13         2.3098    8.0699   -5.1530 C.ar      1 <0>        -0.1097
     21 C14         2.7787    7.1378   -6.0598 C.ar      1 <0>        -0.1262
     22 C15         2.3785    5.8182   -5.9638 C.ar      1 <0>        -0.0974
     23 C16         3.6777    2.4867   -5.7494 C.2       1 <0>         0.1152
     24 C17         4.6293    1.6052   -6.1506 C.2       1 <0>        -0.1437
     25 C18         4.8362    1.8537   -7.5783 C.ar      1 <0>        -0.1248
     26 C19         5.6620    1.2925   -8.5542 C.ar      1 <0>        -0.0642
     27 C20         5.6181    1.7691   -9.8347 C.ar      1 <0>        -0.1369
     28 C21         4.7587    2.8058  -10.1694 C.ar      1 <0>        -0.0927
     29 C22         3.9354    3.3730   -9.2194 C.ar      1 <0>        -0.1072
     30 C23         3.9631    2.9049   -7.9121 C.ar      1 <0>         0.0569
     31 O3          3.2939    3.2495   -6.7930 O.3       1 <0>        -0.1907
     32 H2         -0.8917    7.6004    3.2206 H         1 <0>         0.0497
     33 H3         -0.5405    7.6676    1.4602 H         1 <0>         0.0523
     34 H4          0.8014    7.4620    2.6365 H         1 <0>         0.0520
     35 H5         -0.1092    5.2379    3.2865 H         1 <0>         0.0611
     36 H6         -1.4511    5.4435    2.1102 H         1 <0>         0.0619
     37 H7          0.2007    5.6085    0.2547 H         1 <0>         0.0645
     38 H8          1.5426    5.4028    1.4310 H         1 <0>         0.0614
     39 H9          0.6318    3.1788    2.0810 H         1 <0>         0.0762
     40 H10        -0.7100    3.3845    0.9046 H         1 <0>         0.0768
     41 H11         1.0653    3.5374   -5.8584 H         1 <0>         0.1076
     42 H12         0.0618    3.9460   -4.4256 H         1 <0>         0.1103
     43 H13         0.3540    6.0618   -3.2768 H         1 <0>         0.1295
     44 H14         1.0742    8.4107   -3.4421 H         1 <0>         0.1257
     45 H15         2.6222    9.1010   -5.2282 H         1 <0>         0.1220
     46 H16         3.4574    7.4407   -6.8434 H         1 <0>         0.1217
     47 H17         2.7446    5.0900   -6.6725 H         1 <0>         0.1335
     48 H18         5.1310    0.8688   -5.5403 H         1 <0>         0.1716
     49 H19         6.3329    0.4857   -8.2985 H         1 <0>         0.1307
     50 H20         6.2566    1.3363  -10.5906 H         1 <0>         0.1296
     51 H21         4.7340    3.1724  -11.1850 H         1 <0>         0.1346
     52 H22         3.2703    4.1792   -9.4916 H         1 <0>         0.1320
@<TRIPOS>BOND
     1    1    2 1
     2    1   32 1
     3    1   33 1
     4    1   34 1
     5    2    3 1
     6    2   35 1
     7    2   36 1
     8    3    4 1
     9    3   37 1
    10    3   38 1
    11    4    5 1
    12    4   39 1
    13    4   40 1
    14    5    6 1
    15    5    7 1
    16    5   10 1
    17    7    8 2
    18    7    9 1
    19   10   11 1
    20   11   15 1
    21   11   12 2
    22   12   13 1
    23   13   14 2
    24   14   15 1
    25   14   23 1
    26   15   16 1
    27   16   17 1
    28   16   41 1
    29   16   42 1
    30   17   22 ar
    31   17   18 ar
    32   18   19 ar
    33   18   43 1
    34   19   20 ar
    35   19   44 1
    36   20   21 ar
    37   20   45 1
    38   21   22 ar
    39   21   46 1
    40   22   47 1
    41   23   31 1
    42   23   24 2
    43   24   25 1
    44   24   48 1
    45   25   30 ar
    46   25   26 ar
    47   26   27 ar
    48   26   49 1
    49   27   28 ar
    50   27   50 1
    51   28   29 ar
    52   28   51 1
    53   29   30 ar
    54   29   52 1
    55   30   31 1
@<TRIPOS>MOLECULE
ZINC35697111
   53    55     0     0     0
SMALL
USER_CHARGES

@<TRIPOS>ATOM
      1 C1          4.0593   -1.5809   -2.2029 C.3       1 <0>        -0.1481
      2 C2          3.8795   -0.0858   -2.4736 C.3       1 <0>        -0.1294
      3 C3          4.6168    0.7189   -1.4013 C.3       1 <0>         0.1605
      4 H1          5.6603    0.4061   -1.3656 H         1 <0>         0.0731
      5 C4          4.5423    2.2089   -1.7407 C.3       1 <0>        -0.1592
      6 N1          3.9914    0.4831   -0.0977 N.pl3     1 <0>        -0.7478
      7 C5          4.7018    0.7279    1.0654 C.2       1 <0>         0.5054
      8 O1          5.9379    1.2798    1.0010 O.3       1 <0>        -0.7013
      9 C6          4.1643    0.4176    2.2608 C.2       1 <0>        -0.4668
     10 C7          4.9633    0.5632    3.4860 C.2       1 <0>         0.2314
     11 C8          6.1892    1.1309    3.4583 C.2       1 <0>        -0.3047
     12 S1          6.6742    1.0443    5.1706 S.3       1 <0>         0.1457
     13 C9          5.3017    0.3026    5.7894 C.2       1 <0>         0.3203
     14 N2          4.9851   -0.0636    7.0144 N.2       1 <0>        -0.5941
     15 C10         3.8483   -0.6469    7.3579 C.2       1 <0>         0.3058
     16 C11         2.8844   -0.9174    6.4056 C.2       1 <0>        -0.3963
     17 C12         3.1773   -0.5250    4.9746 C.3       1 <0>         0.3049
     18 H2          2.3918    0.1554    4.6458 H         1 <0>         0.0855
     19 N3          4.4854    0.1299    4.7067 N.pl3     1 <0>        -0.5148
     20 C13         3.0937   -1.7678    4.1264 C.2       1 <0>        -0.1138
     21 C14         2.1227   -2.1460    3.2596 C.2       1 <0>        -0.1339
     22 C15         2.2586   -3.3426    2.5812 C.2       1 <0>        -0.1444
     23 C16         3.3589   -4.1025    2.8027 C.2       1 <0>        -0.1925
     24 S2          4.2518   -3.1203    3.9966 S.3       1 <0>         0.0369
     25 C17         1.6768   -1.5346    6.7536 C.2       1 <0>         0.5378
     26 O2          1.4619   -1.8427    7.9131 O.2       1 <0>        -0.5496
     27 O3          0.7495   -1.7887    5.8040 O.3       1 <0>        -0.3488
     28 C18        -0.4593   -2.4205    6.2302 C.3       1 <0>         0.0972
     29 C19        -1.3660   -2.6224    5.0435 C.2       1 <0>        -0.1453
     30 C20        -1.9789   -3.7678    4.8749 C.2       1 <0>        -0.1809
     31 C21         3.6034   -1.0194    8.7974 C.3       1 <0>        -0.0920
     32 H3          3.6517   -1.8241   -1.2217 H         1 <0>         0.0584
     33 H4          3.5341   -2.1542   -2.9669 H         1 <0>         0.0459
     34 H5          5.1203   -1.8296   -2.2273 H         1 <0>         0.0522
     35 H6          4.2872    0.1573   -3.4548 H         1 <0>         0.0658
     36 H7          2.8186    0.1628   -2.4492 H         1 <0>         0.0587
     37 H8          3.4996    2.5020   -1.8631 H         1 <0>         0.0423
     38 H9          4.9902    2.7883   -0.9333 H         1 <0>         0.0669
     39 H10         5.0840    2.3980   -2.6674 H         1 <0>         0.0468
     40 H11         3.0797    0.1555   -0.0493 H         1 <0>         0.3823
     41 H12         3.1462    0.0618    2.3191 H         1 <0>         0.0859
     42 H13         6.7338    1.5328    2.6167 H         1 <0>         0.2382
     43 H14         1.2556   -1.5218    3.1017 H         1 <0>         0.1256
     44 H15         1.4992   -3.6674    1.8852 H         1 <0>         0.1239
     45 H16         3.6277   -5.0535    2.3670 H         1 <0>         0.1763
     46 H17        -0.2260   -3.3867    6.6777 H         1 <0>         0.0646
     47 H18        -0.9587   -1.7904    6.9660 H         1 <0>         0.0694
     48 H19        -1.5105   -1.8227    4.3321 H         1 <0>         0.1166
     49 H20        -1.8345   -4.5674    5.5863 H         1 <0>         0.0969
     50 H21        -2.6288   -3.9124    4.0244 H         1 <0>         0.1037
     51 H22         4.4660   -0.7325    9.3988 H         1 <0>         0.0649
     52 H23         2.7174   -0.4993    9.1616 H         1 <0>         0.0871
     53 H24         3.4496   -2.0959    8.8731 H         1 <0>         0.0868
@<TRIPOS>BOND
     1    1    2 1
     2    1   32 1
     3    1   33 1
     4    1   34 1
     5    2    3 1
     6    2   35 1
     7    2   36 1
     8    3    4 1
     9    3    5 1
    10    3    6 1
    11    5   37 1
    12    5   38 1
    13    5   39 1
    14    6    7 1
    15    6   40 1
    16    7    8 1
    17    7    9 2
    18    9   10 1
    19    9   41 1
    20   10   19 1
    21   10   11 2
    22   11   12 1
    23   11   42 1
    24   12   13 1
    25   13   19 1
    26   13   14 2
    27   14   15 1
    28   15   16 2
    29   15   31 1
    30   16   17 1
    31   16   25 1
    32   17   18 1
    33   17   19 1
    34   17   20 1
    35   20   24 1
    36   20   21 2
    37   21   22 1
    38   21   43 1
    39   22   23 2
    40   22   44 1
    41   23   24 1
    42   23   45 1
    43   25   26 2
    44   25   27 1
    45   27   28 1
    46   28   29 1
    47   28   46 1
    48   28   47 1
    49   29   30 2
    50   29   48 1
    51   30   49 1
    52   30   50 1
    53   31   51 1
    54   31   52 1
    55   31   53 1
@<TRIPOS>MOLECULE
ZINC36052545
   65    67     0     0     0
SMALL
USER_CHARGES

@<TRIPOS>ATOM
      1 C1         -1.0792   -4.7247    5.4595 C.3       1 <0>        -0.1484
      2 C2         -0.4661   -3.3881    5.8821 C.3       1 <0>        -0.1296
      3 C3         -1.5807   -2.3652    6.1106 C.3       1 <0>         0.1606
      4 H1         -2.2961   -2.7622    6.8308 H         1 <0>         0.0731
      5 C4         -0.9786   -1.0672    6.6524 C.3       1 <0>        -0.1585
      6 N1         -2.2631   -2.0950    4.8427 N.pl3     1 <0>        -0.7492
      7 C5         -3.5445   -1.5701    4.8442 C.2       1 <0>         0.5022
      8 O1         -4.1290   -1.2127    6.0136 O.3       1 <0>        -0.7028
      9 C6         -4.2099   -1.4148    3.6836 C.2       1 <0>        -0.4676
     10 C7         -5.6122   -0.9740    3.6937 C.2       1 <0>         0.2352
     11 C8         -6.2176   -0.5934    4.8401 C.2       1 <0>        -0.3110
     12 S1         -7.8537   -0.1751    4.2720 S.3       1 <0>         0.1062
     13 C9         -7.6526   -0.5098    2.6397 C.2       1 <0>         0.3242
     14 N2         -8.4826   -0.4184    1.6216 N.2       1 <0>        -0.5954
     15 C10        -8.1780   -0.7216    0.3694 C.2       1 <0>         0.2270
     16 C11        -6.9142   -1.1716    0.0460 C.2       1 <0>        -0.3708
     17 C12        -5.9044   -1.3027    1.1642 C.3       1 <0>         0.2660
     18 H2         -5.5658   -2.3385    1.1909 H         1 <0>         0.0776
     19 N3         -6.3558   -0.9288    2.5310 N.pl3     1 <0>        -0.5238
     20 C13        -4.7174   -0.4399    0.8210 C.ar      1 <0>        -0.0734
     21 C14        -4.6444    0.8562    1.2966 C.ar      1 <0>        -0.0785
     22 C15        -3.5558    1.6475    0.9818 C.ar      1 <0>        -0.1238
     23 C16        -2.5397    1.1428    0.1917 C.ar      1 <0>        -0.1195
     24 C17        -2.6122   -0.1533   -0.2829 C.ar      1 <0>        -0.1240
     25 C18        -3.6991   -0.9462    0.0355 C.ar      1 <0>        -0.0681
     26 C19        -3.7757   -2.3611   -0.4776 C.3       1 <0>        -0.1201
     27 C20        -6.5772   -1.4970   -1.2765 C.2       1 <0>         0.6146
     28 O2         -6.3548   -2.6566   -1.5813 O.2       1 <0>        -0.5510
     29 N4         -6.4994   -0.5281   -2.2100 N.am      1 <0>        -0.6086
     30 C21        -6.2831   -0.8806   -3.6154 C.3       1 <0>         0.1099
     31 C22        -7.6315   -0.9644   -4.3336 C.3       1 <0>        -0.1657
     32 C23        -6.6310    0.8777   -1.8194 C.3       1 <0>         0.1079
     33 C24        -5.2408    1.5027   -1.6874 C.3       1 <0>        -0.1904
     34 C25        -9.2190   -0.5748   -0.7103 C.3       1 <0>        -0.1075
     35 H3         -0.2851   -5.4534    5.2967 H         1 <0>         0.0462
     36 H4         -1.7457   -5.0828    6.2441 H         1 <0>         0.0526
     37 H5         -1.6436   -4.5900    4.5368 H         1 <0>         0.0578
     38 H6          0.0983   -3.5227    6.8048 H         1 <0>         0.0656
     39 H7          0.2004   -3.0299    5.0975 H         1 <0>         0.0584
     40 H8         -0.5473   -1.2498    7.6367 H         1 <0>         0.0463
     41 H9         -0.2006   -0.7168    5.9742 H         1 <0>         0.0418
     42 H10        -1.7588   -0.3103    6.7323 H         1 <0>         0.0665
     43 H11        -1.8173   -2.2839    4.0022 H         1 <0>         0.3816
     44 H12        -3.7132   -1.6140    2.7455 H         1 <0>         0.0836
     45 H13        -5.8144   -0.5534    5.8412 H         1 <0>         0.2341
     46 H14        -5.4382    1.2505    1.9137 H         1 <0>         0.1077
     47 H15        -3.4991    2.6602    1.3527 H         1 <0>         0.1148
     48 H16        -1.6894    1.7613   -0.0548 H         1 <0>         0.1143
     49 H17        -1.8186   -0.5475   -0.9003 H         1 <0>         0.1146
     50 H18        -4.1830   -2.3594   -1.4887 H         1 <0>         0.0784
     51 H19        -2.7771   -2.7980   -0.4890 H         1 <0>         0.0576
     52 H20        -4.4223   -2.9493    0.1736 H         1 <0>         0.0697
     53 H21        -5.6653   -0.1185   -4.0903 H         1 <0>         0.0681
     54 H22        -5.7794   -1.8454   -3.6746 H         1 <0>         0.0836
     55 H23        -7.4706   -1.2267   -5.3792 H         1 <0>         0.0610
     56 H24        -8.2494   -1.7265   -3.8587 H         1 <0>         0.0576
     57 H25        -8.1352    0.0004   -4.2744 H         1 <0>         0.0532
     58 H26        -7.1999    1.4141   -2.5788 H         1 <0>         0.0637
     59 H27        -7.1506    0.9420   -0.8633 H         1 <0>         0.0856
     60 H28        -5.3397    2.5653   -1.4654 H         1 <0>         0.0562
     61 H29        -4.6970    1.0120   -0.8802 H         1 <0>         0.0909
     62 H30        -4.6952    1.3761   -2.6225 H         1 <0>         0.0481
     63 H31       -10.1483   -0.2110   -0.2721 H         1 <0>         0.0761
     64 H32        -8.8681    0.1353   -1.4592 H         1 <0>         0.0761
     65 H33        -9.3935   -1.5425   -1.1808 H         1 <0>         0.0715
@<TRIPOS>BOND
     1    1    2 1
     2    1   35 1
     3    1   36 1
     4    1   37 1
     5    2    3 1
     6    2   38 1
     7    2   39 1
     8    3    4 1
     9    3    5 1
    10    3    6 1
    11    5   40 1
    12    5   41 1
    13    5   42 1
    14    6    7 1
    15    6   43 1
    16    7    8 1
    17    7    9 2
    18    9   10 1
    19    9   44 1
    20   10   19 1
    21   10   11 2
    22   11   12 1
    23   11   45 1
    24   12   13 1
    25   13   19 1
    26   13   14 2
    27   14   15 1
    28   15   16 2
    29   15   34 1
    30   16   17 1
    31   16   27 1
    32   17   18 1
    33   17   19 1
    34   17   20 1
    35   20   25 ar
    36   20   21 ar
    37   21   22 ar
    38   21   46 1
    39   22   23 ar
    40   22   47 1
    41   23   24 ar
    42   23   48 1
    43   24   25 ar
    44   24   49 1
    45   25   26 1
    46   26   50 1
    47   26   51 1
    48   26   52 1
    49   27   28 2
    50   27   29 am
    51   29   30 1
    52   29   32 1
    53   30   31 1
    54   30   53 1
    55   30   54 1
    56   31   55 1
    57   31   56 1
    58   31   57 1
    59   32   33 1
    60   32   58 1
    61   32   59 1
    62   33   60 1
    63   33   61 1
    64   33   62 1
    65   34   63 1
    66   34   64 1
    67   34   65 1
@<TRIPOS>MOLECULE
ZINC39898368
   60    63     0     0     0
SMALL
USER_CHARGES

@<TRIPOS>ATOM
      1 C1          1.0526   -5.6014    4.4784 C.3       1 <0>        -0.1546
      2 C2          1.0959   -4.6547    3.2773 C.3       1 <0>        -0.1240
      3 C3          1.5856   -5.4171    2.0444 C.3       1 <0>        -0.1179
      4 C4          1.6289   -4.4704    0.8433 C.3       1 <0>        -0.1195
      5 C5          2.1186   -5.2328   -0.3895 C.3       1 <0>         0.0583
      6 O1          2.1591   -4.3486   -1.5114 O.3       1 <0>        -0.3127
      7 C6          2.5755   -4.8717   -2.6946 C.ar      1 <0>         0.1433
      8 C7          2.9323   -6.2099   -2.7754 C.ar      1 <0>        -0.2064
      9 C8          3.3549   -6.7394   -3.9793 C.ar      1 <0>        -0.0490
     10 C9          3.4228   -5.9367   -5.1031 C.ar      1 <0>        -0.1391
     11 C10         3.0682   -4.6026   -5.0250 C.ar      1 <0>        -0.0633
     12 C11         2.6391   -4.0698   -3.8249 C.ar      1 <0>        -0.1444
     13 C12         3.8846   -6.5168   -6.4151 C.3       1 <0>         0.2515
     14 H1          3.7070   -5.8062   -7.2223 H         1 <0>         0.1099
     15 C13         5.3466   -6.8628   -6.3422 C.2       1 <0>        -0.1688
     16 C14         6.6572   -6.4119   -6.1516 C.2       1 <0>         0.1132
     17 N1          7.4531   -7.4582   -6.2538 N.2       1 <0>        -0.2242
     18 N2          6.7751   -8.5245   -6.4900 N.pl3     1 <0>        -0.3323
     19 H2          7.1525   -9.4109   -6.6029 H         1 <0>         0.4540
     20 C15         5.4444   -8.2239   -6.5583 C.2       1 <0>        -0.0616
     21 C16         4.0952   -8.7613   -6.7670 C.2       1 <0>         0.5973
     22 O2          3.8393   -9.9305   -6.9831 O.2       1 <0>        -0.5167
     23 N3          3.1801   -7.7766   -6.6866 N.am      1 <0>        -0.5937
     24 C17         1.7319   -7.9339   -6.8417 C.3       1 <0>         0.1383
     25 C18         1.3540   -7.7538   -8.3133 C.3       1 <0>        -0.1429
     26 C19        -0.1585   -7.9181   -8.4753 C.3       1 <0>        -0.1503
     27 C20         7.0749   -5.0131   -5.8843 C.ar      1 <0>        -0.0270
     28 C21         6.1379   -3.9837   -5.9248 C.ar      1 <0>        -0.0756
     29 C22         6.5316   -2.6834   -5.6754 C.ar      1 <0>        -0.0426
     30 C23         7.8555   -2.3999   -5.3851 C.ar      1 <0>        -0.0856
     31 C24         8.7925   -3.4148   -5.3431 C.ar      1 <0>        -0.1332
     32 C25         8.4091   -4.7242   -5.5853 C.ar      1 <0>         0.1385
     33 O3          9.3288   -5.7234   -5.5382 O.3       1 <0>        -0.4790
     34 Cl1         5.3631   -1.4006   -5.7266 Cl        1 <0>        -0.0598
     35 H3          0.3717   -6.4258    4.2669 H         1 <0>         0.0542
     36 H4          2.0515   -5.9945    4.6674 H         1 <0>         0.0542
     37 H5          0.7037   -5.0582    5.3567 H         1 <0>         0.0557
     38 H6          0.0969   -4.2616    3.0883 H         1 <0>         0.0634
     39 H7          1.7767   -3.8302    3.4888 H         1 <0>         0.0635
     40 H8          2.5845   -5.8102    2.2335 H         1 <0>         0.0652
     41 H9          0.9047   -6.2415    1.8329 H         1 <0>         0.0652
     42 H10         0.6300   -4.0773    0.6543 H         1 <0>         0.0747
     43 H11         2.3098   -3.6459    1.0548 H         1 <0>         0.0748
     44 H12         3.1176   -5.6259   -0.2005 H         1 <0>         0.0626
     45 H13         1.4378   -6.0573   -0.6011 H         1 <0>         0.0627
     46 H14         2.8801   -6.8372   -1.8977 H         1 <0>         0.1284
     47 H15         3.6327   -7.7811   -4.0428 H         1 <0>         0.1176
     48 H16         3.1224   -3.9776   -5.9041 H         1 <0>         0.1322
     49 H17         2.3580   -3.0287   -3.7654 H         1 <0>         0.1351
     50 H18         1.4370   -8.9295   -6.5101 H         1 <0>         0.0895
     51 H19         1.2185   -7.1838   -6.2403 H         1 <0>         0.0898
     52 H20         1.6489   -6.7582   -8.6449 H         1 <0>         0.0674
     53 H21         1.8675   -8.5040   -8.9148 H         1 <0>         0.0682
     54 H22        -0.4277   -7.7897   -9.5237 H         1 <0>         0.0606
     55 H23        -0.4534   -8.9137   -8.1437 H         1 <0>         0.0579
     56 H24        -0.6719   -7.1679   -7.8739 H         1 <0>         0.0579
     57 H25         5.1047   -4.2017   -6.1513 H         1 <0>         0.1403
     58 H26         8.1572   -1.3812   -5.1909 H         1 <0>         0.1412
     59 H27         9.8237   -3.1879   -5.1165 H         1 <0>         0.1435
     60 H28         9.7629   -5.8985   -6.3843 H         1 <0>         0.3941
@<TRIPOS>BOND
     1    1    2 1
     2    1   35 1
     3    1   36 1
     4    1   37 1
     5    2    3 1
     6    2   38 1
     7    2   39 1
     8    3    4 1
     9    3   40 1
    10    3   41 1
    11    4    5 1
    12    4   42 1
    13    4   43 1
    14    5    6 1
    15    5   44 1
    16    5   45 1
    17    6    7 1
    18    7   12 ar
    19    7    8 ar
    20    8    9 ar
    21    8   46 1
    22    9   10 ar
    23    9   47 1
    24   10   11 ar
    25   10   13 1
    26   11   12 ar
    27   11   48 1
    28   12   49 1
    29   13   14 1
    30   13   23 1
    31   13   15 1
    32   15   20 2
    33   15   16 1
    34   16   17 2
    35   16   27 1
    36   17   18 1
    37   18   19 1
    38   18   20 1
    39   20   21 1
    40   21   22 2
    41   21   23 am
    42   23   24 1
    43   24   25 1
    44   24   50 1
    45   24   51 1
    46   25   26 1
    47   25   52 1
    48   25   53 1
    49   26   54 1
    50   26   55 1
    51   26   56 1
    52   27   32 ar
    53   27   28 ar
    54   28   29 ar
    55   28   57 1
    56   29   30 ar
    57   29   34 1
    58   30   31 ar
    59   30   58 1
    60   31   32 ar
    61   31   59 1
    62   32   33 1
    63   33   60 1
@<TRIPOS>MOLECULE
ZINC59366074
   54    56     0     0     0
SMALL
USER_CHARGES

@<TRIPOS>ATOM
      1 C1         -0.3877    1.4443    0.1073 C.3       1 <0>        -0.1510
      2 C2         -0.3763   -0.0855    0.0817 C.3       1 <0>         0.0553
      3 O1          0.3608   -0.5374   -1.0560 O.3       1 <0>        -0.3203
      4 C3          0.4678   -1.8819   -1.2279 C.ar      1 <0>         0.0951
      5 C4         -0.1311   -2.7452   -0.3204 C.ar      1 <0>        -0.1895
      6 C5         -0.0255   -4.1093   -0.4902 C.ar      1 <0>        -0.0852
      7 C6          0.6856   -4.6228   -1.5786 C.ar      1 <0>         0.0959
      8 C7          1.2864   -3.7493   -2.4896 C.ar      1 <0>        -0.1271
      9 C8          1.1708   -2.3868   -2.3135 C.ar      1 <0>        -0.1259
     10 N1          0.7936   -5.9739   -1.7510 N.2       1 <0>        -0.4892
     11 C9          0.6080   -6.5036   -2.9454 C.2       1 <0>         0.3005
     12 C10         0.6700   -7.9181   -3.3477 C.2       1 <0>        -0.4225
     13 C11         0.4329   -8.1930   -4.6690 C.2       1 <0>         0.3479
     14 O2          0.4690   -9.4652   -5.1265 O.3       1 <0>        -0.5853
     15 C12         0.1488   -7.1178   -5.5456 C.2       1 <0>        -0.1238
     16 C13        -0.1144   -7.1651   -6.8824 C.2       1 <0>        -0.0151
     17 C14        -0.5465   -5.9545   -7.5878 C.ar      1 <0>        -0.0926
     18 C15        -1.1005   -4.8837   -6.8731 C.ar      1 <0>        -0.0645
     19 C16        -1.5043   -3.7500   -7.5407 C.ar      1 <0>        -0.1429
     20 C17        -1.3640   -3.6659   -8.9216 C.ar      1 <0>         0.1284
     21 C18        -0.8152   -4.7250   -9.6361 C.ar      1 <0>        -0.2120
     22 C19        -0.4020   -5.8613   -8.9788 C.ar      1 <0>        -0.0586
     23 O3         -1.7650   -2.5454   -9.5748 O.3       1 <0>        -0.3099
     24 C20        -1.5926   -2.5246  -10.9932 C.3       1 <0>         0.1716
     25 C21        -2.0788   -1.2422  -11.5278 C.1       1 <0>        -0.1982
     26 C22        -2.4665   -0.2194  -11.9542 C.1       1 <0>        -0.1619
     27 S1          0.2104   -5.6878   -4.4818 S.3       1 <0>        -0.1171
     28 C23         0.9703   -8.9780   -2.3846 C.2       1 <0>         0.5369
     29 O4          1.0139  -10.1375   -2.7500 O.2       1 <0>        -0.5321
     30 O5          1.1988   -8.6693   -1.0913 O.3       1 <0>        -0.3410
     31 C24         1.4860   -9.7540   -0.2064 C.3       1 <0>         0.0631
     32 C25         1.7150   -9.2128    1.2062 C.3       1 <0>        -0.1436
     33 H1          0.6358    1.8143    0.1670 H         1 <0>         0.0643
     34 H2         -0.8571    1.8193   -0.8022 H         1 <0>         0.0648
     35 H3         -0.9499    1.7890    0.9751 H         1 <0>         0.0747
     36 H4          0.0932   -0.4605    0.9912 H         1 <0>         0.0585
     37 H5         -1.3998   -0.4555    0.0220 H         1 <0>         0.0589
     38 H6         -0.6803   -2.3475    0.5201 H         1 <0>         0.1237
     39 H7         -0.4912   -4.7801    0.2167 H         1 <0>         0.1264
     40 H8          1.8369   -4.1411   -3.3321 H         1 <0>         0.1327
     41 H9          1.6314   -1.7110   -3.0189 H         1 <0>         0.1256
     42 H10        -0.0045   -8.0943   -7.4218 H         1 <0>         0.1488
     43 H11        -1.2105   -4.9482   -5.8006 H         1 <0>         0.1507
     44 H12        -1.9313   -2.9242   -6.9911 H         1 <0>         0.1328
     45 H13        -0.7088   -4.6539  -10.7085 H         1 <0>         0.1289
     46 H14         0.0283   -6.6815   -9.5343 H         1 <0>         0.1314
     47 H15        -0.5355   -2.6406  -11.2324 H         1 <0>         0.0879
     48 H16        -2.1581   -3.3423  -11.4400 H         1 <0>         0.0877
     49 H17        -2.8133    0.6954  -12.3355 H         1 <0>         0.2243
     50 H18         0.6456  -10.4481   -0.1978 H         1 <0>         0.0521
     51 H19         2.3822  -10.2728   -0.5465 H         1 <0>         0.0520
     52 H20         1.9340  -10.0402    1.8812 H         1 <0>         0.0654
     53 H21         2.5554   -8.5187    1.1976 H         1 <0>         0.0615
     54 H22         0.8188   -8.6940    1.5463 H         1 <0>         0.0614
@<TRIPOS>BOND
     1    1    2 1
     2    1   33 1
     3    1   34 1
     4    1   35 1
     5    2    3 1
     6    2   36 1
     7    2   37 1
     8    3    4 1
     9    4    9 ar
    10    4    5 ar
    11    5    6 ar
    12    5   38 1
    13    6    7 ar
    14    6   39 1
    15    7    8 ar
    16    7   10 1
    17    8    9 ar
    18    8   40 1
    19    9   41 1
    20   10   11 2
    21   11   27 1
    22   11   12 1
    23   12   13 2
    24   12   28 1
    25   13   14 1
    26   13   15 1
    27   15   16 2
    28   15   27 1
    29   16   17 1
    30   16   42 1
    31   17   22 ar
    32   17   18 ar
    33   18   19 ar
    34   18   43 1
    35   19   20 ar
    36   19   44 1
    37   20   21 ar
    38   20   23 1
    39   21   22 ar
    40   21   45 1
    41   22   46 1
    42   23   24 1
    43   24   25 1
    44   24   47 1
    45   24   48 1
    46   25   26 3
    47   26   49 1
    48   28   29 2
    49   28   30 1
    50   30   31 1
    51   31   32 1
    52   31   50 1
    53   31   51 1
    54   32   52 1
    55   32   53 1
    56   32   54 1
@<TRIPOS>MOLECULE
ZINC06468896
   56    58     0     0     0
SMALL
USER_CHARGES
3-(2-methylsulfanylpropyl)-5-phenyl-1-(4-tert-butylphenyl)-pyrazole-4-carboxylic acid
@<TRIPOS>ATOM
      1 C1          1.4031    0.1613   -4.5566 C.3       1 <0>        -0.1401
      2 C2          1.4196   -0.1920   -3.0680 C.3       1 <0>        -0.1023
      3 H1          1.9726   -1.1196   -2.9208 H         1 <0>         0.0770
      4 C3         -0.0162   -0.3697   -2.5702 C.3       1 <0>        -0.0128
      5 C4          0.0031   -0.8369   -1.1376 C.2       1 <0>         0.1024
      6 C5          0.0021   -0.0041    0.0020 C.2       1 <0>        -0.1768
      7 C6          0.0296   -0.8395    1.1196 C.2       1 <0>         0.1047
      8 N1          0.0368   -2.1182    0.6577 N.pl3     1 <0>        -0.3265
      9 N2          0.0236   -2.0795   -0.7409 N.2       1 <0>        -0.2943
     10 C7          0.0596   -3.2752    1.4462 C.ar      1 <0>         0.1689
     11 C8          0.7652   -3.2884    2.6423 C.ar      1 <0>        -0.1227
     12 C9          0.7819   -4.4295    3.4200 C.ar      1 <0>        -0.0988
     13 C10         0.1056   -5.5616    3.0037 C.ar      1 <0>        -0.0848
     14 C11        -0.5936   -5.5535    1.8107 C.ar      1 <0>        -0.0990
     15 C12        -0.6185   -4.4138    1.0309 C.ar      1 <0>        -0.1160
     16 C13         0.1310   -6.8071    3.8518 C.3       1 <0>        -0.0262
     17 C14         0.7488   -7.9560    3.0523 C.3       1 <0>        -0.1384
     18 C15         0.9672   -6.5521    5.1074 C.3       1 <0>        -0.1449
     19 C16        -1.2972   -7.1777    4.2567 C.3       1 <0>        -0.1383
     20 C17         0.0443   -0.4156    2.5341 C.ar      1 <0>        -0.0209
     21 C18        -0.7915   -1.0402    3.4622 C.ar      1 <0>        -0.1001
     22 C19        -0.7685   -0.6430    4.7830 C.ar      1 <0>        -0.1279
     23 C20         0.0715    0.3798    5.1867 C.ar      1 <0>        -0.1177
     24 C21         0.8982    1.0068    4.2712 C.ar      1 <0>        -0.1210
     25 C22         0.8899    0.6156    2.9485 C.ar      1 <0>        -0.0755
     26 C23        -0.0179    1.4657    0.0101 C.2       1 <0>         0.5270
     27 O1         -1.0788    2.0591    0.0184 O.co2     1 <0>        -0.6314
     28 S1          2.2209    1.1438   -2.1384 S.3       1 <0>        -0.0929
     29 C24         3.9348    1.1248   -2.7323 C.3       1 <0>        -0.1786
     30 H2          0.8501    1.0889   -4.7038 H         1 <0>         0.0670
     31 H3          2.4260    0.2879   -4.9113 H         1 <0>         0.0521
     32 H4          0.9216   -0.6413   -5.1152 H         1 <0>         0.0539
     33 H5         -0.5256   -1.1101   -3.1870 H         1 <0>         0.0833
     34 H6         -0.5436    0.5820   -2.6349 H         1 <0>         0.0923
     35 H7          1.2970   -2.4058    2.9659 H         1 <0>         0.1306
     36 H8          1.3270   -4.4391    4.3522 H         1 <0>         0.1317
     37 H9         -1.1211   -6.4391    1.4885 H         1 <0>         0.1250
     38 H10        -1.1645   -4.4082    0.0991 H         1 <0>         0.1301
     39 H11         1.7662   -7.6920    2.7638 H         1 <0>         0.0565
     40 H12         0.7672   -8.8568    3.6657 H         1 <0>         0.0564
     41 H13         0.1531   -8.1377    2.1577 H         1 <0>         0.0567
     42 H14         0.5270   -5.7336    5.6770 H         1 <0>         0.0598
     43 H15         0.9856   -7.4529    5.7209 H         1 <0>         0.0564
     44 H16         1.9846   -6.2881    4.8190 H         1 <0>         0.0591
     45 H17        -1.8929   -7.3593    3.3621 H         1 <0>         0.0566
     46 H18        -1.2788   -8.0785    4.8701 H         1 <0>         0.0563
     47 H19        -1.7373   -6.3592    4.8263 H         1 <0>         0.0570
     48 H20        -1.4509   -1.8356    3.1476 H         1 <0>         0.1146
     49 H21        -1.4109   -1.1284    5.5028 H         1 <0>         0.1193
     50 H22         0.0822    0.6898    6.2212 H         1 <0>         0.1188
     51 H23         1.5516    1.8042    4.5932 H         1 <0>         0.1243
     52 H24         1.5362    1.1054    2.2352 H         1 <0>         0.1466
     53 H25         4.3815    0.1530   -2.5222 H         1 <0>         0.0582
     54 H26         3.9490    1.3066   -3.8069 H         1 <0>         0.0578
     55 H27         4.5039    1.9036   -2.2246 H         1 <0>         0.0891
     56 O2          1.1403    2.1555    0.0027 O.co2     1 <0>        -0.7013
@<TRIPOS>BOND
     1    1    2 1
     2    1   30 1
     3    1   31 1
     4    1   32 1
     5    2    3 1
     6    2    4 1
     7    2   28 1
     8    4    5 1
     9    4   33 1
    10    4   34 1
    11    5    9 2
    12    5    6 1
    13    6    7 2
    14    6   26 1
    15    7    8 1
    16    7   20 1
    17    8    9 1
    18    8   10 1
    19   10   15 ar
    20   10   11 ar
    21   11   12 ar
    22   11   35 1
    23   12   13 ar
    24   12   36 1
    25   13   14 ar
    26   13   16 1
    27   14   15 ar
    28   14   37 1
    29   15   38 1
    30   16   17 1
    31   16   18 1
    32   16   19 1
    33   17   39 1
    34   17   40 1
    35   17   41 1
    36   18   42 1
    37   18   43 1
    38   18   44 1
    39   19   45 1
    40   19   46 1
    41   19   47 1
    42   20   25 ar
    43   20   21 ar
    44   21   22 ar
    45   21   48 1
    46   22   23 ar
    47   22   49 1
    48   23   24 ar
    49   23   50 1
    50   24   25 ar
    51   24   51 1
    52   25   52 1
    53   26   27 2
    54   26   56 1
    55   28   29 1
    56   29   53 1
    57   29   54 1
    58   29   55 1
@<TRIPOS>MOLECULE
ZINC13389608
   57    59     0     0     0
SMALL
USER_CHARGES
(3R)-3-[[4-[(4-tert-butylphenoxy)methyl]benzoyl]amino]-3-(2-thienyl)propanoic acid
@<TRIPOS>ATOM
      1 C1         -0.1859   -3.3310   13.8224 C.3       1 <0>        -0.1393
      2 C2          0.0274   -4.4763   12.8305 C.3       1 <0>        -0.0255
      3 C3         -0.9892   -5.5859   13.1064 C.3       1 <0>        -0.1448
      4 C4          1.4442   -5.0315   12.9895 C.3       1 <0>        -0.1393
      5 C5         -0.1567   -3.9644   11.4251 C.ar      1 <0>        -0.1104
      6 C6          0.6551   -2.9523   10.9473 C.ar      1 <0>        -0.0756
      7 C7          0.4883   -2.4813    9.6594 C.ar      1 <0>        -0.1485
      8 C8         -0.4947   -3.0248    8.8451 C.ar      1 <0>         0.1276
      9 C9         -1.3117   -4.0364    9.3288 C.ar      1 <0>        -0.2078
     10 C10        -1.1368   -4.5081   10.6154 C.ar      1 <0>        -0.0812
     11 O1         -0.6607   -2.5633    7.5777 O.3       1 <0>        -0.3072
     12 C11        -1.6923   -3.1695    6.7964 C.3       1 <0>         0.1021
     13 C12        -1.7271   -2.5339    5.4305 C.ar      1 <0>        -0.0797
     14 C13        -0.9601   -3.0602    4.4062 C.ar      1 <0>        -0.1017
     15 C14        -0.9874   -2.4832    3.1534 C.ar      1 <0>        -0.0621
     16 C15        -1.7907   -1.3658    2.9205 C.ar      1 <0>        -0.1137
     17 C16        -2.5575   -0.8364    3.9597 C.ar      1 <0>        -0.0891
     18 C17        -2.5255   -1.4264    5.2063 C.ar      1 <0>        -0.1007
     19 C18        -1.8244   -0.7419    1.5806 C.2       1 <0>         0.5542
     20 O2         -1.1517   -1.2021    0.6788 O.2       1 <0>        -0.5251
     21 N1         -2.6011    0.3370    1.3589 N.am      1 <0>        -0.7199
     22 C19        -2.5539    1.0199    0.0636 C.3       1 <0>         0.2466
     23 H1         -2.4672    0.2815   -0.7334 H         1 <0>         0.1162
     24 C20        -1.3450    1.9568    0.0248 C.3       1 <0>        -0.1651
     25 C21        -1.2061    2.5406   -1.3576 C.2       1 <0>         0.4696
     26 O3         -1.9192    2.1517   -2.2520 O.co2     1 <0>        -0.6321
     27 C22        -3.8162    1.8204   -0.1284 C.2       1 <0>        -0.1191
     28 C23        -4.5593    1.9866   -1.2499 C.2       1 <0>        -0.1240
     29 C24        -5.6934    2.7747   -1.1918 C.2       1 <0>        -0.1440
     30 C25        -6.0290    3.3580   -0.0152 C.2       1 <0>        -0.1852
     31 S1         -4.7252    2.7896    1.0638 S.3       1 <0>        -0.0067
     32 H2         -1.1952   -2.9355   13.7091 H         1 <0>         0.0561
     33 H3         -0.0527   -3.7012   14.8389 H         1 <0>         0.0571
     34 H4          0.5384   -2.5405   13.6258 H         1 <0>         0.0569
     35 H5         -0.8373   -6.4018   12.3998 H         1 <0>         0.0581
     36 H6         -0.8560   -5.9561   14.1229 H         1 <0>         0.0575
     37 H7         -1.9985   -5.1903   12.9931 H         1 <0>         0.0581
     38 H8          2.1684   -4.2410   12.7929 H         1 <0>         0.0569
     39 H9          1.5774   -5.4017   14.0060 H         1 <0>         0.0571
     40 H10         1.5961   -5.8474   12.2829 H         1 <0>         0.0561
     41 H11         1.4200   -2.5292   11.5817 H         1 <0>         0.1267
     42 H12         1.1229   -1.6910    9.2865 H         1 <0>         0.1305
     43 H13        -2.0806   -4.4580    8.6984 H         1 <0>         0.1270
     44 H14        -1.7692   -5.2991   10.9907 H         1 <0>         0.1277
     45 H15        -2.6537   -3.0248    7.2891 H         1 <0>         0.0729
     46 H16        -1.4925   -4.2363    6.6958 H         1 <0>         0.0730
     47 H17        -0.3390   -3.9249    4.5878 H         1 <0>         0.1309
     48 H18        -0.3888   -2.8954    2.3546 H         1 <0>         0.1416
     49 H19        -3.1778    0.0308    3.7871 H         1 <0>         0.1301
     50 H20        -3.1218   -1.0205    6.0100 H         1 <0>         0.1303
     51 H21        -3.1914    0.6613    2.0570 H         1 <0>         0.3946
     52 H22        -0.4436    1.3974    0.2752 H         1 <0>         0.0777
     53 H23        -1.4855    2.7614    0.7466 H         1 <0>         0.0675
     54 H24        -4.2693    1.5106   -2.1750 H         1 <0>         0.1459
     55 H25        -6.3028    2.9237   -2.0709 H         1 <0>         0.1309
     56 H26        -6.8693    3.9974    0.2116 H         1 <0>         0.1810
     57 O4         -0.2938    3.4965   -1.5939 O.co2     1 <0>        -0.7708
@<TRIPOS>BOND
     1    1    2 1
     2    1   32 1
     3    1   33 1
     4    1   34 1
     5    2    3 1
     6    2    4 1
     7    2    5 1
     8    3   35 1
     9    3   36 1
    10    3   37 1
    11    4   38 1
    12    4   39 1
    13    4   40 1
    14    5   10 ar
    15    5    6 ar
    16    6    7 ar
    17    6   41 1
    18    7    8 ar
    19    7   42 1
    20    8    9 ar
    21    8   11 1
    22    9   10 ar
    23    9   43 1
    24   10   44 1
    25   11   12 1
    26   12   13 1
    27   12   45 1
    28   12   46 1
    29   13   18 ar
    30   13   14 ar
    31   14   15 ar
    32   14   47 1
    33   15   16 ar
    34   15   48 1
    35   16   17 ar
    36   16   19 1
    37   17   18 ar
    38   17   49 1
    39   18   50 1
    40   19   20 2
    41   19   21 am
    42   21   22 1
    43   21   51 1
    44   22   23 1
    45   22   24 1
    46   22   27 1
    47   24   25 1
    48   24   52 1
    49   24   53 1
    50   25   26 2
    51   25   57 1
    52   27   31 1
    53   27   28 2
    54   28   29 1
    55   28   54 1
    56   29   30 2
    57   29   55 1
    58   30   31 1
    59   30   56 1
@<TRIPOS>MOLECULE
ZINC06147236
   48    51     0     0     0
SMALL
USER_CHARGES
N-(2-phenylsulfanylphenyl)-4-(2-thienylsulfonylamino)benzamide
@<TRIPOS>ATOM
      1 C1         -1.0653    8.0752   -5.5328 C.ar      1 <0>        -0.1206
      2 C2         -1.9949    7.9158   -4.5212 C.ar      1 <0>        -0.1028
      3 C3         -1.6606    7.2176   -3.3778 C.ar      1 <0>        -0.1131
      4 C4         -0.3846    6.6845   -3.2393 C.ar      1 <0>        -0.1017
      5 C5          0.5487    6.8516   -4.2554 C.ar      1 <0>        -0.0980
      6 C6          0.2055    7.5461   -5.3984 C.ar      1 <0>        -0.1043
      7 S1          0.0490    5.7995   -1.7787 S.3       1 <0>        -0.0096
      8 C7         -1.3583    5.9844   -0.7347 C.ar      1 <0>        -0.1874
      9 C8         -2.2444    4.9294   -0.5673 C.ar      1 <0>        -0.0436
     10 C9         -3.3474    5.0770    0.2520 C.ar      1 <0>        -0.1601
     11 C10        -3.5720    6.2740    0.9075 C.ar      1 <0>        -0.0669
     12 C11        -2.6949    7.3303    0.7469 C.ar      1 <0>        -0.1483
     13 C12        -1.5824    7.1901   -0.0691 C.ar      1 <0>         0.2221
     14 N1         -0.6894    8.2570   -0.2286 N.am      1 <0>        -0.6846
     15 C13        -1.1063    9.5216   -0.0206 C.2       1 <0>         0.5745
     16 O1         -2.2801    9.7455    0.2054 O.2       1 <0>        -0.5333
     17 C14        -0.1390   10.6341   -0.0669 C.ar      1 <0>        -0.2081
     18 C15         1.2117   10.3778   -0.3207 C.ar      1 <0>        -0.0656
     19 C16         2.1108   11.4184   -0.3685 C.ar      1 <0>        -0.1663
     20 C17         1.6786   12.7242   -0.1529 C.ar      1 <0>         0.2636
     21 C18         0.3352   12.9822    0.1054 C.ar      1 <0>        -0.1756
     22 C19        -0.5699   11.9465    0.1488 C.ar      1 <0>        -0.0346
     23 N2          2.5907   13.7729   -0.1961 N.2       1 <0>        -1.0867
     24 S2          3.0689   14.5127    1.2062 S.o2      1 <0>         2.6212
     25 O2          4.0084   15.5130    0.8377 O.2       1 <0>        -0.9894
     26 O3          1.8844   14.8106    1.9325 O.2       1 <0>        -1.0256
     27 C20         3.9518   13.3162    2.1515 C.2       1 <0>        -0.6928
     28 C21         5.2875   13.0936    2.2132 C.2       1 <0>        -0.0580
     29 C22         5.7622   12.0883    3.0346 C.2       1 <0>        -0.1783
     30 C23         4.8781   11.3547    3.7540 C.2       1 <0>        -0.1775
     31 S3          3.3200   12.0878    3.2824 S.3       1 <0>         0.1276
     32 H1         -1.3309    8.6179   -6.4279 H         1 <0>         0.1232
     33 H2         -2.9849    8.3341   -4.6277 H         1 <0>         0.1224
     34 H3         -2.3884    7.0896   -2.5903 H         1 <0>         0.1210
     35 H4          1.5413    6.4391   -4.1510 H         1 <0>         0.1270
     36 H5          0.9304    7.6767   -6.1883 H         1 <0>         0.1268
     37 H6         -2.0720    3.9933   -1.0777 H         1 <0>         0.1320
     38 H7         -4.0359    4.2550    0.3811 H         1 <0>         0.1260
     39 H8         -4.4353    6.3836    1.5472 H         1 <0>         0.1281
     40 H9         -2.8737    8.2635    1.2604 H         1 <0>         0.1549
     41 H10         0.3524    8.0629   -0.5237 H         1 <0>         0.4376
     42 H11         1.5484    9.3646   -0.4833 H         1 <0>         0.1068
     43 H12         3.1536   11.2216   -0.5693 H         1 <0>         0.1178
     44 H13         0.0029   13.9962    0.2715 H         1 <0>         0.1243
     45 H14        -1.6120   12.1473    0.3488 H         1 <0>         0.1207
     46 H15         5.9706   13.6930    1.6297 H         1 <0>         0.1395
     47 H16         6.8218   11.8904    3.1024 H         1 <0>         0.1318
     48 H17         5.0674   10.5407    4.4380 H         1 <0>         0.1838
@<TRIPOS>BOND
     1    1    6 ar
     2    1    2 ar
     3    1   32 1
     4    2    3 ar
     5    2   33 1
     6    3    4 ar
     7    3   34 1
     8    4    5 ar
     9    4    7 1
    10    5    6 ar
    11    5   35 1
    12    6   36 1
    13    7    8 1
    14    8   13 ar
    15    8    9 ar
    16    9   10 ar
    17    9   37 1
    18   10   11 ar
    19   10   38 1
    20   11   12 ar
    21   11   39 1
    22   12   13 ar
    23   12   40 1
    24   13   14 1
    25   14   15 am
    26   14   41 1
    27   15   16 2
    28   15   17 1
    29   17   22 ar
    30   17   18 ar
    31   18   19 ar
    32   18   42 1
    33   19   20 ar
    34   19   43 1
    35   20   21 ar
    36   20   23 1
    37   21   22 ar
    38   21   44 1
    39   22   45 1
    40   23   24 1
    41   24   25 2
    42   24   26 2
    43   24   27 1
    44   27   31 1
    45   27   28 2
    46   28   29 1
    47   28   46 1
    48   29   30 2
    49   29   47 1
    50   30   31 1
    51   30   48 1
@<TRIPOS>MOLECULE
ZINC40067564
   53    56     0     0     0
SMALL
USER_CHARGES

@<TRIPOS>ATOM
      1 C1         -0.1781    1.4323   -0.3544 C.3       1 <0>        -0.1504
      2 C2         -0.1253   -0.0951   -0.2835 C.3       1 <0>        -0.1205
      3 C3          0.6339   -0.5212    0.9747 C.3       1 <0>        -0.1382
      4 C4          0.6868   -2.0487    1.0457 C.3       1 <0>         0.1359
      5 N1          1.4137   -2.4567    2.2504 N.am      1 <0>        -0.6103
      6 C5          2.8600   -2.6849    2.3510 C.3       1 <0>         0.2647
      7 H1          3.4015   -1.7696    2.1119 H         1 <0>         0.0704
      8 C6          3.1238   -3.0854    3.7838 C.2       1 <0>        -0.5066
      9 C7          1.9289   -3.0788    4.4173 C.2       1 <0>         0.2689
     10 C8          0.8746   -2.6831    3.4621 C.2       1 <0>         0.5125
     11 O1         -0.3061   -2.5798    3.7303 O.2       1 <0>        -0.5327
     12 O2          1.7314   -3.3822    5.7218 O.3       1 <0>        -0.6493
     13 C9          4.4258   -3.4184    4.3742 C.2       1 <0>         0.5429
     14 O3          4.6419   -4.5486    4.7750 O.2       1 <0>        -0.4641
     15 C10         5.4657   -2.3917    4.4816 C.2       1 <0>        -0.2249
     16 C11         6.7814   -2.5190    4.9097 C.2       1 <0>        -0.1093
     17 C12         7.5251   -1.3650    4.9005 C.2       1 <0>        -0.1775
     18 C13         6.9453   -0.2095    4.4865 C.2       1 <0>        -0.2616
     19 S1          5.3749   -0.6550    4.0895 S.3       1 <0>         0.2234
     20 C14         3.2764   -3.7918    1.4170 C.ar      1 <0>        -0.0553
     21 C15         2.5306   -4.9543    1.3476 C.ar      1 <0>        -0.0866
     22 C16         2.9095   -5.9715    0.4915 C.ar      1 <0>        -0.1045
     23 C17         4.0351   -5.8291   -0.2970 C.ar      1 <0>        -0.1282
     24 C18         4.7850   -4.6639   -0.2293 C.ar      1 <0>         0.0781
     25 C19         4.3992   -3.6420    0.6268 C.ar      1 <0>        -0.1326
     26 O4          5.8926   -4.5214   -1.0036 O.3       1 <0>        -0.2583
     27 C20         7.1021   -4.4805   -0.3856 C.ar      1 <0>         0.1227
     28 C21         7.1936   -4.7152    0.9789 C.ar      1 <0>        -0.1863
     29 C22         8.4244   -4.6730    1.6046 C.ar      1 <0>        -0.0767
     30 C23         9.5645   -4.3968    0.8726 C.ar      1 <0>        -0.1560
     31 C24         9.4759   -4.1622   -0.4872 C.ar      1 <0>        -0.0881
     32 C25         8.2484   -4.2097   -1.1190 C.ar      1 <0>        -0.1511
     33 H2          0.8362    1.8297   -0.3901 H         1 <0>         0.0530
     34 H3         -0.7190    1.7359   -1.2508 H         1 <0>         0.0510
     35 H4         -0.6893    1.8195    0.5270 H         1 <0>         0.0536
     36 H5         -1.1396   -0.4925   -0.2478 H         1 <0>         0.0619
     37 H6          0.3859   -0.4823   -1.1649 H         1 <0>         0.0611
     38 H7          1.6483   -0.1239    0.9391 H         1 <0>         0.0650
     39 H8          0.1227   -0.1340    1.8561 H         1 <0>         0.0674
     40 H9         -0.3276   -2.4461    1.0813 H         1 <0>         0.0776
     41 H10         1.1979   -2.4359    0.1642 H         1 <0>         0.0739
     42 H11         7.1926   -3.4651    5.2296 H         1 <0>         0.1405
     43 H12         8.5571   -1.3764    5.2186 H         1 <0>         0.1262
     44 H13         7.3929    0.7713    4.4223 H         1 <0>         0.1792
     45 H14         1.6508   -5.0679    1.9636 H         1 <0>         0.1245
     46 H15         2.3253   -6.8784    0.4392 H         1 <0>         0.1282
     47 H16         4.3311   -6.6244   -0.9651 H         1 <0>         0.1265
     48 H17         4.9790   -2.7323    0.6783 H         1 <0>         0.1258
     49 H18         6.3034   -4.9302    1.5512 H         1 <0>         0.1326
     50 H19         8.4962   -4.8555    2.6667 H         1 <0>         0.1249
     51 H20        10.5257   -4.3639    1.3638 H         1 <0>         0.1214
     52 H21        10.3679   -3.9464   -1.0567 H         1 <0>         0.1267
     53 H22         8.1804   -4.0311   -2.1820 H         1 <0>         0.1286
@<TRIPOS>BOND
     1    1    2 1
     2    1   33 1
     3    1   34 1
     4    1   35 1
     5    2    3 1
     6    2   36 1
     7    2   37 1
     8    3    4 1
     9    3   38 1
    10    3   39 1
    11    4    5 1
    12    4   40 1
    13    4   41 1
    14    5   10 am
    15    5    6 1
    16    6    7 1
    17    6    8 1
    18    6   20 1
    19    8    9 2
    20    8   13 1
    21    9   10 1
    22    9   12 1
    23   10   11 2
    24   13   14 2
    25   13   15 1
    26   15   19 1
    27   15   16 2
    28   16   17 1
    29   16   42 1
    30   17   18 2
    31   17   43 1
    32   18   19 1
    33   18   44 1
    34   20   25 ar
    35   20   21 ar
    36   21   22 ar
    37   21   45 1
    38   22   23 ar
    39   22   46 1
    40   23   24 ar
    41   23   47 1
    42   24   25 ar
    43   24   26 1
    44   25   48 1
    45   26   27 1
    46   27   32 ar
    47   27   28 ar
    48   28   29 ar
    49   28   49 1
    50   29   30 ar
    51   29   50 1
    52   30   31 ar
    53   30   51 1
    54   31   32 ar
    55   31   52 1
    56   32   53 1
@<TRIPOS>MOLECULE
ZINC46562064
   51    54     0     0     0
SMALL
USER_CHARGES

@<TRIPOS>ATOM
      1 C1         -0.0858    1.6162    0.0577 C.ar      1 <0>        -0.1228
      2 C2          1.1443    2.2464    0.0324 C.ar      1 <0>        -0.1171
      3 C3          2.3050    1.4961    0.0094 C.ar      1 <0>        -0.1142
      4 C4          2.2357    0.1155    0.0121 C.ar      1 <0>        -0.0787
      5 C5          1.0057   -0.5148    0.0383 C.ar      1 <0>        -0.1144
      6 C6         -0.1551    0.2356    0.0599 C.ar      1 <0>        -0.1157
      7 C7          3.5011   -0.7025   -0.0140 C.3       1 <0>        -0.0831
      8 C8          3.9600   -0.9780    1.4194 C.3       1 <0>         0.1982
      9 H1          3.1496   -1.4486    1.9761 H         1 <0>         0.0965
     10 C9          5.1539   -1.8973    1.3967 C.ar      1 <0>        -0.0954
     11 C10         6.4124   -1.3893    1.1338 C.ar      1 <0>        -0.0969
     12 C11         7.5076   -2.2325    1.1130 C.ar      1 <0>        -0.1171
     13 C12         7.3444   -3.5836    1.3555 C.ar      1 <0>        -0.1186
     14 C13         6.0860   -4.0914    1.6192 C.ar      1 <0>        -0.1207
     15 C14         4.9915   -3.2475    1.6443 C.ar      1 <0>        -0.1036
     16 N1          4.3278    0.2843    2.0655 N.am      1 <0>        -0.7244
     17 C15         4.2756    0.3945    3.4078 C.2       1 <0>         0.5074
     18 O1          3.9243   -0.5514    4.0807 O.2       1 <0>        -0.5000
     19 C16         4.6540    1.6930    4.0725 C.3       1 <0>         0.0972
     20 N2          4.5147    1.5570    5.5245 N.pl3     1 <0>        -0.4723
     21 C17         3.4028    1.8415    6.2832 C.2       1 <0>         0.1451
     22 N3          3.7106    1.5778    7.5317 N.2       1 <0>        -0.2654
     23 N4          4.9216    1.1539    7.6050 N.2       1 <0>        -0.3386
     24 C18         5.4596    1.1158    6.4064 C.2       1 <0>         0.3925
     25 S1          7.0964    0.5964    6.0116 S.3       1 <0>        -0.7919
     26 C19         2.1061    2.3485    5.7862 C.ar      1 <0>         0.0340
     27 C20         1.7683    2.2071    4.4392 C.ar      1 <0>        -0.1139
     28 C21         0.5570    2.6821    3.9813 C.ar      1 <0>        -0.0989
     29 C22        -0.3231    3.2983    4.8549 C.ar      1 <0>        -0.0423
     30 C23         0.0064    3.4415    6.1923 C.ar      1 <0>        -0.1037
     31 C24         1.2123    2.9653    6.6631 C.ar      1 <0>        -0.0799
     32 Cl1        -1.8456    3.8942    4.2711 Cl        1 <0>        -0.0799
     33 H2         -0.9925    2.2024    0.0802 H         1 <0>         0.1197
     34 H3          1.1984    3.3251    0.0303 H         1 <0>         0.1213
     35 H4          3.2660    1.9885   -0.0111 H         1 <0>         0.1188
     36 H5          0.9516   -1.5934    0.0401 H         1 <0>         0.1201
     37 H6         -1.1161   -0.2568    0.0800 H         1 <0>         0.1198
     38 H7          3.3124   -1.6477   -0.5231 H         1 <0>         0.0902
     39 H8          4.2783   -0.1528   -0.5449 H         1 <0>         0.0814
     40 H9          6.5399   -0.3337    0.9444 H         1 <0>         0.1172
     41 H10         8.4907   -1.8358    0.9069 H         1 <0>         0.1201
     42 H11         8.1999   -4.2425    1.3385 H         1 <0>         0.1187
     43 H12         5.9585   -5.1471    1.8083 H         1 <0>         0.1195
     44 H13         4.0089   -3.6437    1.8540 H         1 <0>         0.1187
     45 H14         4.6088    1.0408    1.5273 H         1 <0>         0.3965
     46 H15         5.6874    1.9387    3.8280 H         1 <0>         0.1271
     47 H16         3.9978    2.4876    3.7173 H         1 <0>         0.1104
     48 H17         2.4541    1.7270    3.7569 H         1 <0>         0.1266
     49 H18         0.2947    2.5736    2.9393 H         1 <0>         0.1327
     50 H19        -0.6841    3.9229    6.8689 H         1 <0>         0.1359
     51 H20         1.4664    3.0735    7.7072 H         1 <0>         0.1440
@<TRIPOS>BOND
     1    1    6 ar
     2    1    2 ar
     3    1   33 1
     4    2    3 ar
     5    2   34 1
     6    3    4 ar
     7    3   35 1
     8    4    5 ar
     9    4    7 1
    10    5    6 ar
    11    5   36 1
    12    6   37 1
    13    7    8 1
    14    7   38 1
    15    7   39 1
    16    8    9 1
    17    8   10 1
    18    8   16 1
    19   10   15 ar
    20   10   11 ar
    21   11   12 ar
    22   11   40 1
    23   12   13 ar
    24   12   41 1
    25   13   14 ar
    26   13   42 1
    27   14   15 ar
    28   14   43 1
    29   15   44 1
    30   16   17 am
    31   16   45 1
    32   17   18 2
    33   17   19 1
    34   19   20 1
    35   19   46 1
    36   19   47 1
    37   20   24 1
    38   20   21 1
    39   21   22 2
    40   21   26 1
    41   22   23 1
    42   23   24 2
    43   24   25 1
    44   26   31 ar
    45   26   27 ar
    46   27   28 ar
    47   27   48 1
    48   28   29 ar
    49   28   49 1
    50   29   30 ar
    51   29   32 1
    52   30   31 ar
    53   30   50 1
    54   31   51 1
@<TRIPOS>MOLECULE
ZINC06201999
   50    53     0     0     0
SMALL
USER_CHARGES
1-(3-chlorophenyl)-5-phenyl-3-(2-phenylpropyl)pyrazole-4-carboxylic acid
@<TRIPOS>ATOM
      1 C1          5.1340   -2.4807   -1.3903 C.3       1 <0>        -0.1424
      2 C2          4.4081   -2.8287   -0.0893 C.3       1 <0>        -0.0451
      3 H1          3.3460   -2.9671   -0.2916 H         1 <0>         0.0742
      4 C3          4.5915   -1.6910    0.9172 C.3       1 <0>        -0.0283
      5 C4          3.9114   -0.4492    0.4010 C.2       1 <0>         0.1099
      6 C5          4.5069    0.5416   -0.4089 C.2       1 <0>        -0.1860
      7 C6          3.5306    1.5070   -0.6589 C.2       1 <0>         0.1087
      8 N1          2.4030    1.1058   -0.0140 N.pl3     1 <0>        -0.3308
      9 N2          2.6729   -0.1078    0.6279 N.2       1 <0>        -0.2918
     10 C7          1.1797    1.7872    0.0004 C.ar      1 <0>         0.1881
     11 C8          1.1567    3.1760    0.0076 C.ar      1 <0>        -0.1231
     12 C9         -0.0509    3.8456    0.0222 C.ar      1 <0>        -0.0840
     13 C10        -1.2374    3.1353    0.0293 C.ar      1 <0>        -0.1233
     14 C11        -1.2186    1.7516    0.0173 C.ar      1 <0>        -0.0171
     15 C12        -0.0126    1.0758    0.0080 C.ar      1 <0>        -0.1121
     16 Cl1        -2.7104    0.8638    0.0196 Cl        1 <0>        -0.0670
     17 C13         3.6925    2.7323   -1.4671 C.ar      1 <0>        -0.0248
     18 C14         4.8256    3.5329   -1.3081 C.ar      1 <0>        -0.0756
     19 C15         4.9728    4.6733   -2.0700 C.ar      1 <0>        -0.1193
     20 C16         3.9955    5.0307   -2.9821 C.ar      1 <0>        -0.1155
     21 C17         2.8678    4.2449   -3.1410 C.ar      1 <0>        -0.1264
     22 C18         2.7103    3.0988   -2.3898 C.ar      1 <0>        -0.1013
     23 C19         5.8921    0.5518   -0.9006 C.2       1 <0>         0.5288
     24 O1          6.1628    0.0325   -1.9659 O.co2     1 <0>        -0.6155
     25 C20         4.9807   -4.1008    0.4807 C.ar      1 <0>        -0.0638
     26 C21         6.3210   -4.1676    0.8125 C.ar      1 <0>        -0.1098
     27 C22         6.8453   -5.3331    1.3395 C.ar      1 <0>        -0.1189
     28 C23         6.0314   -6.4349    1.5256 C.ar      1 <0>        -0.1319
     29 C24         4.6922   -6.3696    1.1894 C.ar      1 <0>        -0.1234
     30 C25         4.1669   -5.2027    0.6665 C.ar      1 <0>        -0.1190
     31 H2          5.0034   -3.2912   -2.1073 H         1 <0>         0.0411
     32 H3          4.7199   -1.5606   -1.8026 H         1 <0>         0.0827
     33 H4          6.1961   -2.3424   -1.1879 H         1 <0>         0.0637
     34 H5          5.6549   -1.4934    1.0523 H         1 <0>         0.0917
     35 H6          4.1507   -1.9763    1.8724 H         1 <0>         0.0768
     36 H7          2.0827    3.7318    0.0021 H         1 <0>         0.1382
     37 H8         -0.0688    4.9254    0.0278 H         1 <0>         0.1401
     38 H9         -2.1805    3.6614    0.0404 H         1 <0>         0.1362
     39 H10         0.0021   -0.0041    0.0020 H         1 <0>         0.1428
     40 H11         5.5870    3.2574   -0.5934 H         1 <0>         0.1449
     41 H12         5.8507    5.2910   -1.9513 H         1 <0>         0.1256
     42 H13         4.1137    5.9271   -3.5729 H         1 <0>         0.1204
     43 H14         2.1092    4.5294   -3.8552 H         1 <0>         0.1212
     44 H15         1.8298    2.4862   -2.5151 H         1 <0>         0.1153
     45 H16         6.9577   -3.3082    0.6633 H         1 <0>         0.1272
     46 H17         7.8915   -5.3840    1.6025 H         1 <0>         0.1196
     47 H18         6.4418   -7.3465    1.9341 H         1 <0>         0.1159
     48 H19         4.0563   -7.2304    1.3348 H         1 <0>         0.1166
     49 H20         3.1207   -5.1518    0.4034 H         1 <0>         0.1185
     50 O2          6.8622    1.1372   -0.1703 O.co2     1 <0>        -0.7519
@<TRIPOS>BOND
     1    1    2 1
     2    1   31 1
     3    1   32 1
     4    1   33 1
     5    2    3 1
     6    2    4 1
     7    2   25 1
     8    4    5 1
     9    4   34 1
    10    4   35 1
    11    5    9 2
    12    5    6 1
    13    6    7 2
    14    6   23 1
    15    7    8 1
    16    7   17 1
    17    8    9 1
    18    8   10 1
    19   10   15 ar
    20   10   11 ar
    21   11   12 ar
    22   11   36 1
    23   12   13 ar
    24   12   37 1
    25   13   14 ar
    26   13   38 1
    27   14   15 ar
    28   14   16 1
    29   15   39 1
    30   17   22 ar
    31   17   18 ar
    32   18   19 ar
    33   18   40 1
    34   19   20 ar
    35   19   41 1
    36   20   21 ar
    37   20   42 1
    38   21   22 ar
    39   21   43 1
    40   22   44 1
    41   23   24 2
    42   23   50 1
    43   25   30 ar
    44   25   26 ar
    45   26   27 ar
    46   26   45 1
    47   27   28 ar
    48   27   46 1
    49   28   29 ar
    50   28   47 1
    51   29   30 ar
    52   29   48 1
    53   30   49 1
@<TRIPOS>MOLECULE
ZINC20192722
   54    58     0     0     0
SMALL
USER_CHARGES
N-[(S)-(1-hydroxy-2-phenyl-indol-3-yl)-(3-methoxyphenyl)methyl]pyridin-2-amine
@<TRIPOS>ATOM
      1 C1          2.1025   -0.3688    0.2241 C.3       1 <0>         0.0265
      2 O1          2.2131    1.0539    0.1491 O.3       1 <0>        -0.3182
      3 C2          1.0545    1.7642    0.1590 C.ar      1 <0>         0.1239
      4 C3         -0.1639    1.1052    0.2393 C.ar      1 <0>        -0.2151
      5 C4         -1.3402    1.8292    0.2439 C.ar      1 <0>        -0.0840
      6 C5         -1.3038    3.2101    0.1806 C.ar      1 <0>        -0.1301
      7 C6         -0.0912    3.8690    0.1001 C.ar      1 <0>        -0.0363
      8 C7          1.0881    3.1491    0.0893 C.ar      1 <0>        -0.1411
      9 C8         -0.0554    5.3737    0.0244 C.3       1 <0>         0.2844
     10 H1          0.8982    5.7519    0.4213 H         1 <0>         0.0930
     11 C9         -0.2330    5.8090   -1.4074 C.2       1 <0>        -0.2333
     12 C10        -1.4771    5.7900   -2.1748 C.ar      1 <0>        -0.1022
     13 C11        -2.7917    5.4177   -1.8785 C.ar      1 <0>        -0.0892
     14 C12        -3.7597    5.5270   -2.8360 C.ar      1 <0>        -0.1579
     15 C13        -3.4501    6.0109   -4.1000 C.ar      1 <0>        -0.1391
     16 C14        -2.1626    6.3895   -4.4121 C.ar      1 <0>        -0.0920
     17 C15        -1.1600    6.2872   -3.4532 C.ar      1 <0>         0.0713
     18 N1          0.1866    6.5772   -3.4605 N.pl3     1 <0>        -0.2241
     19 C16         0.7322    6.2874   -2.2312 C.2       1 <0>         0.1196
     20 C17         2.1534    6.4689   -1.8646 C.ar      1 <0>         0.0024
     21 C18         2.4930    7.0596   -0.6468 C.ar      1 <0>        -0.1119
     22 C19         3.8208    7.2205   -0.3081 C.ar      1 <0>        -0.1265
     23 C20         4.8145    6.8088   -1.1782 C.ar      1 <0>        -0.1281
     24 C21         4.4845    6.2277   -2.3896 C.ar      1 <0>        -0.1252
     25 C22         3.1606    6.0555   -2.7376 C.ar      1 <0>        -0.0779
     26 O2          0.9017    7.0964   -4.5668 O.3       1 <0>        -0.6304
     27 N2         -1.1370    5.9295    0.8415 N.pl3     1 <0>        -0.7169
     28 C23        -0.9363    6.1580    2.1978 C.ar      1 <0>         0.4165
     29 C24         0.2453    5.7376    2.8004 C.ar      1 <0>        -0.2427
     30 C25         0.4317    5.9714    4.1507 C.ar      1 <0>        -0.0339
     31 C26        -0.5734    6.6203    4.8560 C.ar      1 <0>        -0.2517
     32 C27        -1.7202    7.0101    4.1944 C.ar      1 <0>         0.1474
     33 N3         -1.8688    6.7786    2.9036 N.ar      1 <0>        -0.5495
     34 H2          3.1073   -0.8161    0.2071 H         1 <0>         0.0973
     35 H3          1.5226   -0.7373   -0.6349 H         1 <0>         0.0537
     36 H4          1.5925   -0.6482    1.1578 H         1 <0>         0.0527
     37 H5         -0.1926    0.0270    0.2937 H         1 <0>         0.1214
     38 H6         -2.2890    1.3165    0.3019 H         1 <0>         0.1195
     39 H7         -2.2245    3.7746    0.1896 H         1 <0>         0.1215
     40 H8          2.0352    3.6643    0.0264 H         1 <0>         0.1272
     41 H9         -3.0401    5.0407   -0.8974 H         1 <0>         0.1046
     42 H10        -4.7740    5.2343   -2.6081 H         1 <0>         0.1066
     43 H11        -4.2265    6.0911   -4.8465 H         1 <0>         0.1090
     44 H12        -1.9324    6.7644   -5.3985 H         1 <0>         0.1104
     45 H13         1.7182    7.3858    0.0312 H         1 <0>         0.1205
     46 H14         4.0849    7.6731    0.6363 H         1 <0>         0.1182
     47 H15         5.8524    6.9414   -0.9105 H         1 <0>         0.1154
     48 H16         5.2649    5.9078   -3.0642 H         1 <0>         0.1175
     49 H17         2.9042    5.6014   -3.6834 H         1 <0>         0.1257
     50 H18        -2.1079    6.1660    0.3816 H         1 <0>         0.4259
     51 H19         1.0065    5.2358    2.2215 H         1 <0>         0.1285
     52 H20         1.3384    5.6561    4.6456 H         1 <0>         0.1254
     53 H21        -0.4589    6.8176    5.9116 H         1 <0>         0.1232
     54 H22        -2.5043    7.5150    4.7390 H         1 <0>         0.1480
@<TRIPOS>BOND
     1    1    2 1
     2    1   34 1
     3    1   35 1
     4    1   36 1
     5    2    3 1
     6    3    8 ar
     7    3    4 ar
     8    4    5 ar
     9    4   37 1
    10    5    6 ar
    11    5   38 1
    12    6    7 ar
    13    6   39 1
    14    7    8 ar
    15    7    9 1
    16    8   40 1
    17    9   10 1
    18    9   11 1
    19    9   27 1
    20   11   19 2
    21   11   12 1
    22   12   17 ar
    23   12   13 ar
    24   13   14 ar
    25   13   41 1
    26   14   15 ar
    27   14   42 1
    28   15   16 ar
    29   15   43 1
    30   16   17 ar
    31   16   44 1
    32   17   18 1
    33   18   19 1
    34   18   26 1
    35   19   20 1
    36   20   25 ar
    37   20   21 ar
    38   21   22 ar
    39   21   45 1
    40   22   23 ar
    41   22   46 1
    42   23   24 ar
    43   23   47 1
    44   24   25 ar
    45   24   48 1
    46   25   49 1
    47   27   28 1
    48   27   50 1
    49   28   33 ar
    50   28   29 ar
    51   29   30 ar
    52   29   51 1
    53   30   31 ar
    54   30   52 1
    55   31   32 ar
    56   31   53 1
    57   32   33 ar
    58   32   54 1
@<TRIPOS>MOLECULE
ZINC33513799
   54    58     0     0     0
SMALL
USER_CHARGES
N-[(S)-(1-hydroxy-2-phenyl-indol-3-yl)-(4-methoxyphenyl)methyl]pyridin-2-amine
@<TRIPOS>ATOM
      1 C1          4.7797    0.3000   -0.4019 C.3       1 <0>         0.0260
      2 O1          3.6175   -0.5226   -0.2804 O.3       1 <0>        -0.3214
      3 C2          2.4180    0.1116   -0.2044 C.ar      1 <0>         0.1158
      4 C3          1.2487   -0.6254   -0.0851 C.ar      1 <0>        -0.1502
      5 C4          0.0306    0.0216   -0.0086 C.ar      1 <0>        -0.0720
      6 C5         -0.0240    1.4025   -0.0512 C.ar      1 <0>        -0.1092
      7 C6          1.1399    2.1393   -0.1700 C.ar      1 <0>        -0.0553
      8 C7          2.3606    1.4971   -0.2465 C.ar      1 <0>        -0.2075
      9 C8         -1.3547    2.1055    0.0257 C.3       1 <0>         0.2876
     10 H1         -2.1545    1.4471   -0.3442 H         1 <0>         0.0905
     11 C9         -1.6287    2.5076    1.4520 C.2       1 <0>        -0.2310
     12 C10        -1.0051    3.6114    2.1800 C.ar      1 <0>        -0.1036
     13 C11        -0.0452    4.5714    1.8462 C.ar      1 <0>        -0.0896
     14 C12         0.3407    5.4959    2.7746 C.ar      1 <0>        -0.1584
     15 C13        -0.2133    5.4907    4.0478 C.ar      1 <0>        -0.1392
     16 C14        -1.1610    4.5542    4.3984 C.ar      1 <0>        -0.0918
     17 C15        -1.5695    3.6024    3.4698 C.ar      1 <0>         0.0715
     18 N1         -2.4728    2.5636    3.5173 N.pl3     1 <0>        -0.2244
     19 C16        -2.5050    1.9182    2.3027 C.2       1 <0>         0.1170
     20 C17        -3.3614    0.7576    1.9759 C.ar      1 <0>         0.0031
     21 C18        -4.0601    0.7201    0.7685 C.ar      1 <0>        -0.1117
     22 C19        -4.8521   -0.3685    0.4668 C.ar      1 <0>        -0.1267
     23 C20        -4.9645   -1.4158    1.3639 C.ar      1 <0>        -0.1286
     24 C21        -4.2793   -1.3820    2.5654 C.ar      1 <0>        -0.1256
     25 C22        -3.4788   -0.3022    2.8762 C.ar      1 <0>        -0.0786
     26 O2         -3.2551    2.2158    4.6452 O.3       1 <0>        -0.6308
     27 N2         -1.3255    3.3003   -0.8215 N.pl3     1 <0>        -0.7180
     28 C23        -1.6309    3.2010   -2.1739 C.ar      1 <0>         0.4164
     29 C24        -1.8375    1.9486   -2.7440 C.ar      1 <0>        -0.2422
     30 C25        -2.1466    1.8649   -4.0894 C.ar      1 <0>        -0.0343
     31 C26        -2.2277    3.0399   -4.8252 C.ar      1 <0>        -0.2522
     32 C27        -2.0049    4.2482   -4.1964 C.ar      1 <0>         0.1474
     33 N3         -1.7173    4.2985   -2.9094 N.ar      1 <0>        -0.5505
     34 H2          5.6755   -0.3363   -0.4532 H         1 <0>         0.0968
     35 H3          4.8515    0.9645    0.4717 H         1 <0>         0.0549
     36 H4          4.7066    0.9049   -1.3177 H         1 <0>         0.0533
     37 H5          1.2907   -1.7041   -0.0525 H         1 <0>         0.1261
     38 H6         -0.8800   -0.5517    0.0843 H         1 <0>         0.1264
     39 H7          1.0947    3.2179   -0.2034 H         1 <0>         0.1217
     40 H8          3.2695    2.0731   -0.3390 H         1 <0>         0.1223
     41 H9          0.3899    4.5817    0.8578 H         1 <0>         0.1034
     42 H10         1.0825    6.2371    2.5162 H         1 <0>         0.1063
     43 H11         0.1023    6.2283    4.7708 H         1 <0>         0.1090
     44 H12        -1.5853    4.5588    5.3916 H         1 <0>         0.1103
     45 H13        -3.9769    1.5392    0.0695 H         1 <0>         0.1206
     46 H14        -5.3895   -0.4010   -0.4694 H         1 <0>         0.1181
     47 H15        -5.5896   -2.2635    1.1251 H         1 <0>         0.1153
     48 H16        -4.3710   -2.2028    3.2613 H         1 <0>         0.1175
     49 H17        -2.9439   -0.2773    3.8141 H         1 <0>         0.1260
     50 H18        -1.0619    4.2760   -0.3874 H         1 <0>         0.4248
     51 H19        -1.7618    1.0545   -2.1430 H         1 <0>         0.1287
     52 H20        -2.3164    0.9069   -4.5583 H         1 <0>         0.1253
     53 H21        -2.4632    3.0086   -5.8788 H         1 <0>         0.1230
     54 H22        -2.0669    5.1643   -4.7649 H         1 <0>         0.1477
@<TRIPOS>BOND
     1    1    2 1
     2    1   34 1
     3    1   35 1
     4    1   36 1
     5    2    3 1
     6    3    8 ar
     7    3    4 ar
     8    4    5 ar
     9    4   37 1
    10    5    6 ar
    11    5   38 1
    12    6    7 ar
    13    6    9 1
    14    7    8 ar
    15    7   39 1
    16    8   40 1
    17    9   10 1
    18    9   11 1
    19    9   27 1
    20   11   19 2
    21   11   12 1
    22   12   17 ar
    23   12   13 ar
    24   13   14 ar
    25   13   41 1
    26   14   15 ar
    27   14   42 1
    28   15   16 ar
    29   15   43 1
    30   16   17 ar
    31   16   44 1
    32   17   18 1
    33   18   19 1
    34   18   26 1
    35   19   20 1
    36   20   25 ar
    37   20   21 ar
    38   21   22 ar
    39   21   45 1
    40   22   23 ar
    41   22   46 1
    42   23   24 ar
    43   23   47 1
    44   24   25 ar
    45   24   48 1
    46   25   49 1
    47   27   28 1
    48   27   50 1
    49   28   33 ar
    50   28   29 ar
    51   29   30 ar
    52   29   51 1
    53   30   31 ar
    54   30   52 1
    55   31   32 ar
    56   31   53 1
    57   32   33 ar
    58   32   54 1
@<TRIPOS>MOLECULE
ZINC39996965
   47    48     0     0     0
SMALL
USER_CHARGES

@<TRIPOS>ATOM
      1 C1          2.1709    1.3357    1.0971 C.3       1 <0>        -0.1513
      2 C2          1.9563   -0.1740    0.9716 C.3       1 <0>        -0.1196
      3 C3          2.4398   -0.6455   -0.4013 C.3       1 <0>        -0.1026
      4 C4          2.2252   -2.1552   -0.5267 C.3       1 <0>        -0.1041
      5 S1          2.7984   -2.7142   -2.1544 S.3       1 <0>        -0.0115
      6 C5          2.4877   -4.4486   -2.1432 C.2       1 <0>        -0.0643
      7 N1          1.9561   -5.2130   -1.1975 N.2       1 <0>        -0.2430
      8 N2          1.8018   -6.4553   -1.3521 N.2       1 <0>        -0.3425
      9 C6          2.1638   -7.0721   -2.4741 C.2       1 <0>         0.3656
     10 S2          2.7923   -5.6793   -3.4074 S.3       1 <0>        -0.0652
     11 N3          2.0767   -8.3837   -2.8161 N.2       1 <0>        -0.6026
     12 C7          1.5688   -9.2510   -1.9695 C.2       1 <0>         0.4673
     13 O1          1.1326   -8.8374   -0.7571 O.3       1 <0>        -0.6274
     14 C8          1.4744  -10.6706   -2.3396 C.2       1 <0>        -0.0317
     15 C9          0.9426  -11.5788   -1.4532 C.2       1 <0>         0.0090
     16 C10         1.0016  -13.0144   -1.7500 C.ar      1 <0>        -0.0811
     17 C11         2.0965  -13.5460   -2.4432 C.ar      1 <0>        -0.0931
     18 C12         2.1439  -14.8959   -2.7173 C.ar      1 <0>        -0.1167
     19 C13         1.1134  -15.7258   -2.3096 C.ar      1 <0>        -0.0696
     20 C14         0.0271  -15.2088   -1.6244 C.ar      1 <0>        -0.1197
     21 C15        -0.0340  -13.8623   -1.3367 C.ar      1 <0>        -0.0889
     22 C16         1.1742  -17.2005   -2.6140 C.3       1 <0>        -0.0584
     23 C17         1.1486  -17.9928   -1.3054 C.3       1 <0>        -0.1437
     24 C18        -0.0297  -17.5941   -3.4722 C.3       1 <0>        -0.1444
     25 C19         1.9360  -11.1083   -3.6226 C.1       1 <0>         0.2769
     26 N4          2.3021  -11.4555   -4.6404 N.1       1 <0>        -0.4327
     27 H1          3.2315    1.5622    0.9878 H         1 <0>         0.0540
     28 H2          1.6076    1.8487    0.3176 H         1 <0>         0.0540
     29 H3          1.8265    1.6716    2.0751 H         1 <0>         0.0538
     30 H4          2.5196   -0.6871    1.7511 H         1 <0>         0.0650
     31 H5          0.8957   -0.4006    1.0809 H         1 <0>         0.0650
     32 H6          1.8765   -0.1325   -1.1807 H         1 <0>         0.0715
     33 H7          3.5003   -0.4190   -0.5105 H         1 <0>         0.0714
     34 H8          2.7885   -2.6683    0.2528 H         1 <0>         0.0897
     35 H9          1.1646   -2.3817   -0.4174 H         1 <0>         0.0897
     36 H10         0.4818  -11.2349   -0.5390 H         1 <0>         0.1617
     37 H11         2.9010  -12.9000   -2.7623 H         1 <0>         0.1251
     38 H12         2.9871  -15.3075   -3.2520 H         1 <0>         0.1223
     39 H13        -0.7725  -15.8633   -1.3103 H         1 <0>         0.1236
     40 H14        -0.8797  -13.4614   -0.7978 H         1 <0>         0.1310
     41 H15         2.0941  -17.4221   -3.1551 H         1 <0>         0.0769
     42 H16         2.0063  -17.7123   -0.6940 H         1 <0>         0.0564
     43 H17         0.2287  -17.7711   -0.7644 H         1 <0>         0.0574
     44 H18         1.1926  -19.0594   -1.5256 H         1 <0>         0.0564
     45 H19        -0.0115  -17.0296   -4.4045 H         1 <0>         0.0564
     46 H20         0.0143  -18.6608   -3.6924 H         1 <0>         0.0566
     47 H21        -0.9496  -17.3724   -2.9312 H         1 <0>         0.0573
@<TRIPOS>BOND
     1    1    2 1
     2    1   27 1
     3    1   28 1
     4    1   29 1
     5    2    3 1
     6    2   30 1
     7    2   31 1
     8    3    4 1
     9    3   32 1
    10    3   33 1
    11    4    5 1
    12    4   34 1
    13    4   35 1
    14    5    6 1
    15    6   10 1
    16    6    7 2
    17    7    8 1
    18    8    9 2
    19    9   10 1
    20    9   11 1
    21   11   12 2
    22   12   13 1
    23   12   14 1
    24   14   15 2
    25   14   25 1
    26   15   16 1
    27   15   36 1
    28   16   21 ar
    29   16   17 ar
    30   17   18 ar
    31   17   37 1
    32   18   19 ar
    33   18   38 1
    34   19   20 ar
    35   19   22 1
    36   20   21 ar
    37   20   39 1
    38   21   40 1
    39   22   23 1
    40   22   24 1
    41   22   41 1
    42   23   42 1
    43   23   43 1
    44   23   44 1
    45   24   45 1
    46   24   46 1
    47   24   47 1
    48   25   26 3
@<TRIPOS>MOLECULE
ZINC40475771
   56    58     0     0     0
SMALL
USER_CHARGES

@<TRIPOS>ATOM
      1 C1         -2.0054    0.0851    0.0204 C.3       1 <0>        -0.1474
      2 C2         -0.7703   -0.7959    0.2185 C.3       1 <0>         0.0647
      3 O1         -0.2312   -1.1538   -1.0556 O.3       1 <0>        -0.3410
      4 C3          0.8632   -1.9310   -1.0577 C.2       1 <0>         0.4664
      5 O2          1.3474   -2.2953   -0.0123 O.2       1 <0>        -0.4584
      6 C4          1.4880   -2.3491   -2.3637 C.3       1 <0>        -0.0572
      7 H1          0.8819   -1.9772   -3.1898 H         1 <0>         0.1190
      8 C5          1.5526   -3.8738   -2.4292 C.3       1 <0>         0.0689
      9 H2          1.9446   -4.1723   -3.4015 H         1 <0>         0.1017
     10 C6          2.4270   -4.4288   -1.3612 C.2       1 <0>        -0.2926
     11 C7          3.4038   -3.8106   -0.6380 C.2       1 <0>         0.1440
     12 N1          4.0230   -4.5871    0.2508 N.2       1 <0>        -0.5590
     13 C8          3.7000   -5.8522    0.4114 C.2       1 <0>         0.2836
     14 S1          4.3962   -7.0262    1.5257 S.3       1 <0>        -0.7347
     15 S2          2.4597   -6.0780   -0.7052 S.3       1 <0>         0.0565
     16 S3          3.7744   -2.0910   -0.9046 S.3       1 <0>         0.0043
     17 C9          2.8997   -1.7600   -2.4636 C.3       1 <0>        -0.0869
     18 H3          3.4341   -2.2255   -3.2917 H         1 <0>         0.1432
     19 C10         2.8141   -0.2720   -2.6864 C.2       1 <0>         0.4851
     20 O3          1.9288    0.3665   -2.1683 O.2       1 <0>        -0.4748
     21 O4          3.7213    0.3440   -3.4605 O.3       1 <0>        -0.3420
     22 C11         3.5794    1.7560   -3.6281 C.3       1 <0>         0.0593
     23 C12         4.6960    2.2767   -4.5353 C.3       1 <0>        -0.1521
     24 C13         0.1627   -4.4330   -2.2661 C.ar      1 <0>        -0.0873
     25 C14        -0.5322   -4.8907   -3.3700 C.ar      1 <0>        -0.1044
     26 C15        -1.8070   -5.4036   -3.2203 C.ar      1 <0>        -0.1186
     27 C16        -2.3869   -5.4594   -1.9667 C.ar      1 <0>        -0.0679
     28 C17        -1.6917   -5.0025   -0.8627 C.ar      1 <0>        -0.1178
     29 C18        -0.4151   -4.4935   -1.0117 C.ar      1 <0>        -0.0917
     30 C19        -3.7772   -6.0177   -1.8037 C.3       1 <0>        -0.0289
     31 C20        -3.8041   -7.4687   -2.2882 C.3       1 <0>        -0.1381
     32 C21        -4.1780   -5.9652   -0.3281 C.3       1 <0>        -0.1451
     33 C22        -4.7608   -5.1859   -2.6293 C.3       1 <0>        -0.1362
     34 H4         -1.7245    0.9879   -0.5219 H         1 <0>         0.0644
     35 H5         -2.7550   -0.4631   -0.5503 H         1 <0>         0.0630
     36 H6         -2.4167    0.3581    0.9922 H         1 <0>         0.0741
     37 H7         -0.0207   -0.2477    0.7892 H         1 <0>         0.0643
     38 H8         -1.0512   -1.6988    0.7608 H         1 <0>         0.0618
     39 H9          2.6121    1.9727   -4.0815 H         1 <0>         0.0697
     40 H10         3.6430    2.2455   -2.6563 H         1 <0>         0.0696
     41 H11         5.6632    2.0600   -4.0820 H         1 <0>         0.0687
     42 H12         4.6324    1.7872   -5.5072 H         1 <0>         0.0673
     43 H13         4.5877    3.3538   -4.6632 H         1 <0>         0.0794
     44 H14        -0.0791   -4.8472   -4.3494 H         1 <0>         0.1216
     45 H15        -2.3502   -5.7606   -4.0829 H         1 <0>         0.1188
     46 H16        -2.1449   -5.0457    0.1167 H         1 <0>         0.1230
     47 H17         0.1295   -4.1400   -0.1487 H         1 <0>         0.1288
     48 H18        -3.1033   -8.0612   -1.7000 H         1 <0>         0.0583
     49 H19        -4.8097   -7.8725   -2.1703 H         1 <0>         0.0556
     50 H20        -3.5185   -7.5060   -3.3395 H         1 <0>         0.0563
     51 H21        -4.1589   -4.9315    0.0171 H         1 <0>         0.0577
     52 H22        -5.1836   -6.3690   -0.2102 H         1 <0>         0.0557
     53 H23        -3.4773   -6.5577    0.2601 H         1 <0>         0.0605
     54 H24        -4.4752   -5.2233   -3.6805 H         1 <0>         0.0561
     55 H25        -5.7663   -5.5897   -2.5114 H         1 <0>         0.0554
     56 H26        -4.7416   -4.1522   -2.2841 H         1 <0>         0.0555
@<TRIPOS>BOND
     1    1    2 1
     2    1   34 1
     3    1   35 1
     4    1   36 1
     5    2    3 1
     6    2   37 1
     7    2   38 1
     8    3    4 1
     9    4    5 2
    10    4    6 1
    11    6    7 1
    12    6   17 1
    13    6    8 1
    14    8    9 1
    15    8   10 1
    16    8   24 1
    17   10   15 1
    18   10   11 2
    19   11   12 1
    20   11   16 1
    21   12   13 2
    22   13   14 1
    23   13   15 1
    24   16   17 1
    25   17   18 1
    26   17   19 1
    27   19   20 2
    28   19   21 1
    29   21   22 1
    30   22   23 1
    31   22   39 1
    32   22   40 1
    33   23   41 1
    34   23   42 1
    35   23   43 1
    36   24   29 ar
    37   24   25 ar
    38   25   26 ar
    39   25   44 1
    40   26   27 ar
    41   26   45 1
    42   27   28 ar
    43   27   30 1
    44   28   29 ar
    45   28   46 1
    46   29   47 1
    47   30   31 1
    48   30   32 1
    49   30   33 1
    50   31   48 1
    51   31   49 1
    52   31   50 1
    53   32   51 1
    54   32   52 1
    55   32   53 1
    56   33   54 1
    57   33   55 1
    58   33   56 1
@<TRIPOS>MOLECULE
ZINC59427497
   55    59     0     0     0
SMALL
USER_CHARGES

@<TRIPOS>ATOM
      1 C1          0.1948    1.3874   -1.4359 C.ar      1 <0>        -0.1227
      2 C2          0.3940    0.0884   -1.8688 C.ar      1 <0>        -0.1137
      3 C3          1.5436   -0.5896   -1.5197 C.ar      1 <0>        -0.1210
      4 C4          2.5072    0.0380   -0.7283 C.ar      1 <0>        -0.0120
      5 C5          2.3001    1.3488   -0.2954 C.ar      1 <0>        -0.1021
      6 C6          1.1459    2.0152   -0.6512 C.ar      1 <0>        -0.1142
      7 C7          3.7411   -0.6825   -0.3500 C.2       1 <0>         0.0489
      8 C8          4.9065   -0.1032    0.0410 C.2       1 <0>        -0.1303
      9 C9          5.8301   -1.1422    0.3117 C.2       1 <0>        -0.1286
     10 C10         5.1694   -2.3463    0.0671 C.2       1 <0>         0.1351
     11 N1          3.8956   -2.0488   -0.3304 N.pl3     1 <0>        -0.3920
     12 C11         2.9089   -2.9841   -0.6666 C.ar      1 <0>         0.1271
     13 C12         1.7766   -3.1161    0.1265 C.ar      1 <0>        -0.0922
     14 C13         0.8051   -4.0392   -0.2072 C.ar      1 <0>        -0.0973
     15 C14         0.9591   -4.8322   -1.3309 C.ar      1 <0>        -0.0266
     16 C15         2.0865   -4.7026   -2.1229 C.ar      1 <0>        -0.0963
     17 C16         3.0583   -3.7771   -1.7968 C.ar      1 <0>        -0.0926
     18 Cl1        -0.2637   -5.9919   -1.7473 Cl        1 <0>        -0.0612
     19 C17         5.7409   -3.6974    0.2154 C.ar      1 <0>        -0.0288
     20 C18         5.1043   -4.6445    1.0225 C.ar      1 <0>        -0.0981
     21 C19         5.6448   -5.9062    1.1563 C.ar      1 <0>        -0.1265
     22 C20         6.8147   -6.2353    0.4943 C.ar      1 <0>        -0.1028
     23 C21         7.4509   -5.3027   -0.3062 C.ar      1 <0>        -0.1213
     24 C22         6.9187   -4.0392   -0.4550 C.ar      1 <0>        -0.0387
     25 C23         7.2162   -0.9827    0.7621 C.2       1 <0>         0.2054
     26 N2          7.9592   -2.0357    0.9738 N.2       1 <0>        -0.4602
     27 C24         9.2531   -1.8868    1.3942 C.ar      1 <0>         0.0569
     28 C25        10.0808   -0.9353    0.7909 C.ar      1 <0>        -0.1562
     29 C26        11.3864   -0.7840    1.2133 C.ar      1 <0>        -0.1281
     30 C27        11.8846   -1.5695    2.2336 C.ar      1 <0>        -0.0891
     31 C28        11.0687   -2.5248    2.8468 C.ar      1 <0>        -0.1241
     32 C29         9.7471   -2.6797    2.4288 C.ar      1 <0>        -0.0600
     33 C30        11.6030   -3.3639    3.9368 C.2       1 <0>         0.5206
     34 O1         12.7607   -3.2239    4.3049 O.co2     1 <0>        -0.6867
     35 O2         10.8879   -4.1991    4.4721 O.co2     1 <0>        -0.6841
     36 H1         -0.7050    1.9151   -1.7155 H         1 <0>         0.1212
     37 H2         -0.3523   -0.3960   -2.4810 H         1 <0>         0.1211
     38 H3          1.6976   -1.6037   -1.8576 H         1 <0>         0.1210
     39 H4          3.0416    1.8399    0.3174 H         1 <0>         0.1292
     40 H5          0.9844    3.0294   -0.3169 H         1 <0>         0.1253
     41 H6          5.0944    0.9567    0.1287 H         1 <0>         0.1511
     42 H7          1.6561   -2.4978    1.0037 H         1 <0>         0.1394
     43 H8         -0.0755   -4.1425    0.4095 H         1 <0>         0.1429
     44 H9          2.2046   -5.3229   -2.9991 H         1 <0>         0.1433
     45 H10         3.9358   -3.6732   -2.4178 H         1 <0>         0.1400
     46 H11         4.1917   -4.3888    1.5402 H         1 <0>         0.1109
     47 H12         5.1541   -6.6390    1.7796 H         1 <0>         0.1193
     48 H13         7.2335   -7.2249    0.6032 H         1 <0>         0.1200
     49 H14         8.3639   -5.5665   -0.8192 H         1 <0>         0.1211
     50 H15         7.4134   -3.3140   -1.0842 H         1 <0>         0.1185
     51 H16         7.6227    0.0055    0.9188 H         1 <0>         0.1058
     52 H17         9.6980   -0.3173   -0.0078 H         1 <0>         0.1119
     53 H18        12.0213   -0.0477    0.7430 H         1 <0>         0.1152
     54 H19        12.9071   -1.4458    2.5586 H         1 <0>         0.1268
     55 H20         9.1109   -3.4133    2.9016 H         1 <0>         0.1297
@<TRIPOS>BOND
     1    1    6 ar
     2    1    2 ar
     3    1   36 1
     4    2    3 ar
     5    2   37 1
     6    3    4 ar
     7    3   38 1
     8    4    5 ar
     9    4    7 1
    10    5    6 ar
    11    5   39 1
    12    6   40 1
    13    7   11 1
    14    7    8 2
    15    8    9 1
    16    8   41 1
    17    9   10 2
    18    9   25 1
    19   10   11 1
    20   10   19 1
    21   11   12 1
    22   12   17 ar
    23   12   13 ar
    24   13   14 ar
    25   13   42 1
    26   14   15 ar
    27   14   43 1
    28   15   16 ar
    29   15   18 1
    30   16   17 ar
    31   16   44 1
    32   17   45 1
    33   19   24 ar
    34   19   20 ar
    35   20   21 ar
    36   20   46 1
    37   21   22 ar
    38   21   47 1
    39   22   23 ar
    40   22   48 1
    41   23   24 ar
    42   23   49 1
    43   24   50 1
    44   25   26 2
    45   25   51 1
    46   26   27 1
    47   27   32 ar
    48   27   28 ar
    49   28   29 ar
    50   28   52 1
    51   29   30 ar
    52   29   53 1
    53   30   31 ar
    54   30   54 1
    55   31   32 ar
    56   31   33 1
    57   32   55 1
    58   33   34 2
    59   33   35 1
@<TRIPOS>MOLECULE
ZINC08846572
   67    70     0     0     0
SMALL
USER_CHARGES
2-[1-[2-(5-benzyloxy-2-methyl-1H-indol-3-yl)ethylamino]pentylidene]cyclohexane-1,3-dione
@<TRIPOS>ATOM
      1 C1         -2.1413    6.1551    3.5914 C.3       1 <0>        -0.1494
      2 C2         -2.5152    4.6854    3.7949 C.3       1 <0>        -0.1196
      3 C3         -1.2673    3.8148    3.6339 C.3       1 <0>        -0.0963
      4 C4         -1.6411    2.3451    3.8373 C.3       1 <0>        -0.1141
      5 C5         -0.4121    1.4877    3.6787 C.2       1 <0>         0.2829
      6 C6          0.3215    1.1120    4.7965 C.2       1 <0>        -0.5300
      7 C7         -0.1140    1.4272    6.1724 C.2       1 <0>         0.4104
      8 O1         -0.6273    2.4912    6.4515 O.3       1 <0>        -0.5322
      9 C8          0.1134    0.3466    7.2152 C.3       1 <0>        -0.1607
     10 C9          1.5651   -0.1311    7.1215 C.3       1 <0>        -0.0953
     11 C10         1.8375   -0.7075    5.7295 C.3       1 <0>        -0.1652
     12 C11         1.5970    0.3737    4.6955 C.2       1 <0>         0.4249
     13 O2          2.4103    0.6201    3.8287 O.2       1 <0>        -0.5078
     14 N1         -0.0256    1.0862    2.4545 N.2       1 <0>        -0.6426
     15 C12        -0.7994    1.4825    1.2754 C.3       1 <0>         0.0762
     16 C13        -0.1751    0.8625    0.0237 C.3       1 <0>        -0.0257
     17 C14        -0.9711    1.2702   -1.1892 C.2       1 <0>        -0.1568
     18 C15        -2.0158    0.6124   -1.7165 C.2       1 <0>         0.0738
     19 N2         -2.4860    1.2845   -2.8115 N.pl3     1 <0>        -0.6077
     20 H1         -3.3495    0.8923   -3.3687 H         1 <0>         0.4331
     21 C16        -1.7286    2.4166   -3.0269 C.ar      1 <0>         0.0791
     22 C17        -0.7473    2.4560   -2.0199 C.ar      1 <0>        -0.0597
     23 C18         0.1751    3.5036   -1.9847 C.ar      1 <0>        -0.0889
     24 C19         0.1164    4.4966   -2.9424 C.ar      1 <0>         0.0924
     25 C20        -0.8559    4.4546   -3.9381 C.ar      1 <0>        -0.1763
     26 C21        -1.7709    3.4262   -3.9822 C.ar      1 <0>        -0.0897
     27 O3          1.0120    5.5195   -2.9131 O.3       1 <0>        -0.3086
     28 C22         0.8954    6.5133   -3.9333 C.3       1 <0>         0.1015
     29 C23         1.9636    7.5586   -3.7409 C.ar      1 <0>        -0.0929
     30 C24         1.7102    8.6702   -2.9591 C.ar      1 <0>        -0.0950
     31 C25         2.6920    9.6264   -2.7783 C.ar      1 <0>        -0.1234
     32 C26         3.9235    9.4764   -3.3880 C.ar      1 <0>        -0.1124
     33 C27         4.1751    8.3677   -4.1742 C.ar      1 <0>        -0.1242
     34 C28         3.1951    7.4087   -4.3505 C.ar      1 <0>        -0.0958
     35 C29        -2.5882   -0.6741   -1.1797 C.3       1 <0>        -0.0902
     36 H2         -3.0384    6.7810    3.7072 H         1 <0>         0.0454
     37 H3         -1.7268    6.2915    2.5817 H         1 <0>         0.0497
     38 H4         -1.3900    6.4492    4.3391 H         1 <0>         0.0535
     39 H5         -2.9298    4.5489    4.8046 H         1 <0>         0.0595
     40 H6         -3.2665    4.3912    3.0472 H         1 <0>         0.0496
     41 H7         -0.8527    3.9514    2.6242 H         1 <0>         0.0493
     42 H8         -0.5160    4.1090    4.3816 H         1 <0>         0.0693
     43 H9         -2.3923    2.0510    3.0896 H         1 <0>         0.0433
     44 H10        -0.0801    0.7574    8.2171 H         1 <0>         0.0637
     45 H11        -0.5691   -0.4950    7.0260 H         1 <0>         0.0815
     46 H12         2.2424    0.7168    7.3011 H         1 <0>         0.0576
     47 H13         1.7443   -0.9100    7.8773 H         1 <0>         0.0579
     48 H14         2.8809   -1.0511    5.6727 H         1 <0>         0.0624
     49 H15         1.1617   -1.5556    5.5451 H         1 <0>         0.0798
     50 H16        -2.0557    2.2086    4.8470 H         1 <0>         0.0695
     51 H17        -0.7928    2.5786    1.1839 H         1 <0>         0.0231
     52 H18        -1.8359    1.1296    1.3814 H         1 <0>         0.0148
     53 H19         0.8613    1.2155   -0.0823 H         1 <0>         0.0660
     54 H20        -0.1816   -0.2336    0.1152 H         1 <0>         0.0632
     55 H21         0.8725    3.5319   -1.2686 H         1 <0>         0.1191
     56 H22        -0.8945    5.1756   -4.6299 H         1 <0>         0.1167
     57 H23        -2.4653    3.4051   -4.7015 H         1 <0>         0.1097
     58 H24         1.0169    6.0421   -4.9198 H         1 <0>         0.0682
     59 H25        -0.0958    6.9865   -3.8726 H         1 <0>         0.0685
     60 H26         0.7465    8.7896   -2.4864 H         1 <0>         0.1244
     61 H27         2.4955   10.4925   -2.1637 H         1 <0>         0.1245
     62 H28         4.6892   10.2253   -3.2497 H         1 <0>         0.1227
     63 H29         5.1372    8.2506   -4.6507 H         1 <0>         0.1240
     64 H30         3.3917    6.5424   -4.9649 H         1 <0>         0.1239
     65 H31        -3.4369   -0.9871   -1.8055 H         1 <0>         0.0612
     66 H32        -2.9320   -0.5194   -0.1463 H         1 <0>         0.0825
     67 H33        -1.8135   -1.4549   -1.1954 H         1 <0>         0.0815
@<TRIPOS>BOND
     1    1    2 1
     2    1   36 1
     3    1   37 1
     4    1   38 1
     5    2    3 1
     6    2   39 1
     7    2   40 1
     8    3   41 1
     9    3   42 1
    10    3    4 1
    11    4    5 1
    12    4   43 1
    13    4   50 1
    14    5    6 1
    15    5   14 2
    16    6   12 1
    17    6    7 2
    18    7    8 1
    19    7    9 1
    20    9   10 1
    21    9   44 1
    22    9   45 1
    23   10   11 1
    24   10   46 1
    25   10   47 1
    26   11   12 1
    27   11   48 1
    28   11   49 1
    29   12   13 2
    30   14   15 1
    31   15   16 1
    32   15   51 1
    33   15   52 1
    34   16   17 1
    35   16   53 1
    36   16   54 1
    37   17   22 1
    38   17   18 2
    39   18   19 1
    40   18   35 1
    41   19   20 1
    42   19   21 1
    43   21   26 ar
    44   21   22 ar
    45   22   23 ar
    46   23   24 ar
    47   23   55 1
    48   24   25 ar
    49   24   27 1
    50   25   26 ar
    51   25   56 1
    52   26   57 1
    53   27   28 1
    54   28   29 1
    55   28   58 1
    56   28   59 1
    57   29   34 ar
    58   29   30 ar
    59   30   31 ar
    60   30   60 1
    61   31   32 ar
    62   31   61 1
    63   32   33 ar
    64   32   62 1
    65   33   34 ar
    66   33   63 1
    67   34   64 1
    68   35   65 1
    69   35   66 1
    70   35   67 1
@<TRIPOS>MOLECULE
ZINC18154177
   55    57     0     0     0
SMALL
USER_CHARGES

@<TRIPOS>ATOM
      1 C1         -0.2675    1.2752    0.2526 C.3       1 <0>        -0.1521
      2 C2         -0.1754   -0.2510    0.1978 C.3       1 <0>        -0.1243
      3 C3          0.5349   -0.6731   -1.0900 C.3       1 <0>        -0.1191
      4 C4          0.6270   -2.1994   -1.1448 C.3       1 <0>        -0.1213
      5 C5          1.3372   -2.6215   -2.4325 C.3       1 <0>        -0.1051
      6 C6          1.4294   -4.1477   -2.4873 C.3       1 <0>        -0.0370
      7 H1          0.4320   -4.5741   -2.3801 H         1 <0>         0.0670
      8 C7          2.3043   -4.6357   -1.3639 C.ar      1 <0>        -0.0534
      9 C8          1.7509   -5.0407   -0.1681 C.ar      1 <0>        -0.1296
     10 C9          2.5673   -5.4861    0.8571 C.ar      1 <0>        -0.1303
     11 C10         3.9408   -5.5280    0.6921 C.ar      1 <0>        -0.1390
     12 C11         4.5085   -5.1258   -0.5000 C.ar      1 <0>        -0.0881
     13 C12         3.6904   -4.6775   -1.5362 C.ar      1 <0>        -0.0629
     14 C13         4.2684   -4.2441   -2.8238 C.2       1 <0>         0.3126
     15 C14         3.4676   -4.1862   -3.9221 C.2       1 <0>        -0.4897
     16 C15         2.0195   -4.5715   -3.8303 C.3       1 <0>         0.0238
     17 H2          1.9278   -5.6523   -3.9380 H         1 <0>         0.0448
     18 C16         1.2471   -3.8860   -4.9592 C.3       1 <0>        -0.1430
     19 C17         4.0030   -3.7603   -5.1572 C.2       1 <0>         0.6584
     20 O1          4.3067   -4.5810   -6.0049 O.2       1 <0>        -0.5424
     21 N1          4.1781   -2.4459   -5.3983 N.am      1 <0>        -0.5694
     22 N2          4.6086   -2.0166   -6.6605 N.2       1 <0>        -0.1900
     23 C18         4.7772   -0.7507   -6.8928 C.2       1 <0>         0.0387
     24 C19         5.2302   -0.2989   -8.2211 C.ar      1 <0>        -0.0643
     25 C20         5.4184    1.0622   -8.4732 C.ar      1 <0>        -0.0748
     26 C21         5.8423    1.4778   -9.7179 C.ar      1 <0>        -0.1376
     27 C22         6.0812    0.5509  -10.7177 C.ar      1 <0>        -0.0907
     28 C23         5.8973   -0.7986  -10.4779 C.ar      1 <0>        -0.1620
     29 C24         5.4793   -1.2314   -9.2336 C.ar      1 <0>         0.1276
     30 F1          5.3057   -2.5503   -8.9980 F         1 <0>        -0.1092
     31 O2          5.5755   -3.9090   -2.9102 O.3       1 <0>        -0.7040
     32 H3          0.7359    1.7007    0.2349 H         1 <0>         0.0527
     33 H4         -0.8305    1.6364   -0.6080 H         1 <0>         0.0516
     34 H5         -0.7735    1.5760    1.1700 H         1 <0>         0.0495
     35 H6          0.3877   -0.6121    1.0584 H         1 <0>         0.0595
     36 H7         -1.1788   -0.6764    0.2155 H         1 <0>         0.0579
     37 H8         -0.0282   -0.3120   -1.9506 H         1 <0>         0.0574
     38 H9          1.5383   -0.2477   -1.1077 H         1 <0>         0.0598
     39 H10         1.1900   -2.5605   -0.2842 H         1 <0>         0.0642
     40 H11        -0.3764   -2.6248   -1.1270 H         1 <0>         0.0547
     41 H12         0.7742   -2.2603   -3.2931 H         1 <0>         0.0642
     42 H13         2.3406   -2.1961   -2.4503 H         1 <0>         0.0666
     43 H14         0.6801   -5.0101   -0.0309 H         1 <0>         0.1134
     44 H15         2.1296   -5.8026    1.7923 H         1 <0>         0.1108
     45 H16         4.5699   -5.8760    1.4980 H         1 <0>         0.1125
     46 H17         5.5803   -5.1578   -0.6292 H         1 <0>         0.1238
     47 H18         1.4261   -2.8115   -4.9217 H         1 <0>         0.0508
     48 H19         1.5835   -4.2771   -5.9194 H         1 <0>         0.0489
     49 H20         0.1812   -4.0811   -4.8408 H         1 <0>         0.0427
     50 H21         4.0061   -1.7972   -4.6980 H         1 <0>         0.3815
     51 H22         4.5857   -0.0284   -6.1131 H         1 <0>         0.1167
     52 H23         5.2320    1.7875   -7.6950 H         1 <0>         0.1344
     53 H24         5.9879    2.5299   -9.9133 H         1 <0>         0.1289
     54 H25         6.4126    0.8833  -11.6904 H         1 <0>         0.1293
     55 H26         6.0850   -1.5160  -11.2630 H         1 <0>         0.1347
@<TRIPOS>BOND
     1    1    2 1
     2    1   32 1
     3    1   33 1
     4    1   34 1
     5    2    3 1
     6    2   35 1
     7    2   36 1
     8    3    4 1
     9    3   37 1
    10    3   38 1
    11    4    5 1
    12    4   39 1
    13    4   40 1
    14    5    6 1
    15    5   41 1
    16    5   42 1
    17    6    7 1
    18    6   16 1
    19    6    8 1
    20    8   13 ar
    21    8    9 ar
    22    9   10 ar
    23    9   43 1
    24   10   11 ar
    25   10   44 1
    26   11   12 ar
    27   11   45 1
    28   12   13 ar
    29   12   46 1
    30   13   14 1
    31   14   15 2
    32   14   31 1
    33   15   16 1
    34   15   19 1
    35   16   17 1
    36   16   18 1
    37   18   47 1
    38   18   48 1
    39   18   49 1
    40   19   20 2
    41   19   21 am
    42   21   22 1
    43   21   50 1
    44   22   23 2
    45   23   24 1
    46   23   51 1
    47   24   29 ar
    48   24   25 ar
    49   25   26 ar
    50   25   52 1
    51   26   27 ar
    52   26   53 1
    53   27   28 ar
    54   27   54 1
    55   28   29 ar
    56   28   55 1
    57   29   30 1
@<TRIPOS>MOLECULE
ZINC43766884
   78    80     0     0     0
SMALL
USER_CHARGES

@<TRIPOS>ATOM
      1 C1          0.7545    2.1076   -0.3279 C.3       1 <0>        -0.1503
      2 C2          0.3010    0.6568   -0.1535 C.3       1 <0>        -0.0847
      3 H1         -0.7850    0.6236   -0.0666 H         1 <0>         0.0564
      4 C3          0.7408   -0.1644   -1.3672 C.3       1 <0>        -0.1134
      5 C4          0.0132    0.3399   -2.6151 C.3       1 <0>        -0.1196
      6 C5          0.4531   -0.4814   -3.8287 C.3       1 <0>        -0.1154
      7 C6         -0.2745    0.0229   -5.0766 C.3       1 <0>        -0.0978
      8 C7          0.1641    1.4574   -5.3780 C.3       1 <0>        -0.1479
      9 C8          0.0695   -0.8761   -6.2658 C.3       1 <0>        -0.1473
     10 C9          0.9320    0.0739    1.1125 C.3       1 <0>        -0.1076
     11 H2          2.0160    0.1825    1.0758 H         1 <0>         0.1539
     12 C10         0.5514   -1.4133    1.2600 C.3       1 <0>        -0.1447
     13 C11        -0.2161   -1.5387    2.5943 C.3       1 <0>        -0.1146
     14 C12         0.2858   -0.3233    3.4289 C.3       1 <0>        -0.0614
     15 H3         -0.3988   -0.0618    4.2358 H         1 <0>         0.0558
     16 C13         0.3718    0.7782    2.3552 C.3       1 <0>        -0.0390
     17 C14         1.2109    1.9607    2.7819 C.3       1 <0>        -0.0953
     18 C15         2.5970    1.5180    3.2503 C.3       1 <0>        -0.1609
     19 C16         2.4233    0.5530    4.4281 C.3       1 <0>        -0.0368
     20 H4          1.8445    1.0366    5.2150 H         1 <0>         0.0453
     21 C17         1.6759   -0.6953    3.9496 C.3       1 <0>        -0.1496
     22 H5          1.5734   -1.4040    4.7715 H         1 <0>         0.0602
     23 C18         2.4666   -1.3366    2.8385 C.2       1 <0>         0.5296
     24 O1          3.0838   -0.6413    2.0497 O.co2     1 <0>        -0.6614
     25 O2          2.4893   -2.5506    2.7285 O.co2     1 <0>        -0.6958
     26 C19         3.7967    0.1543    4.9721 C.3       1 <0>        -0.0937
     27 C20         3.6349   -0.9598    6.0116 C.3       1 <0>        -0.1093
     28 C21         2.8657   -0.4206    7.2188 C.3       1 <0>        -0.1193
     29 C22         3.6741    0.6872    7.8962 C.3       1 <0>         0.0987
     30 H6          4.6567    0.3038    8.1714 H         1 <0>         0.0859
     31 C23         3.8374    1.8632    6.9275 C.3       1 <0>        -0.1894
     32 C24         4.4436    1.3465    5.6416 C.2       1 <0>         0.3778
     33 O3          5.4194    1.8721    5.1620 O.2       1 <0>        -0.4479
     34 O4          2.9885    1.1279    9.0700 O.3       1 <0>        -0.3435
     35 C25         3.7434    1.5883   10.0799 C.2       1 <0>         0.4544
     36 O5          4.9464    1.6164    9.9709 O.2       1 <0>        -0.5120
     37 C26         3.0904    2.0704   11.3496 C.3       1 <0>        -0.1463
     38 C27         4.6823   -0.3335    3.8238 C.3       1 <0>        -0.1325
     39 C28        -1.0401    1.2803    2.0463 C.3       1 <0>        -0.1495
     40 H7          1.8434    2.1526   -0.3100 H         1 <0>         0.0541
     41 H8          0.3907    2.4898   -1.2817 H         1 <0>         0.0409
     42 H9          0.3524    2.7140    0.4837 H         1 <0>         0.0569
     43 H10         1.8168   -0.0591   -1.5065 H         1 <0>         0.0598
     44 H11         0.4967   -1.2140   -1.2035 H         1 <0>         0.0623
     45 H12        -1.0627    0.2346   -2.4757 H         1 <0>         0.0523
     46 H13         0.2574    1.3895   -2.7787 H         1 <0>         0.0619
     47 H14         1.5290   -0.3761   -3.9681 H         1 <0>         0.0606
     48 H15         0.2089   -1.5310   -3.6650 H         1 <0>         0.0591
     49 H16        -1.3505    0.0008   -4.9036 H         1 <0>         0.0655
     50 H17         1.2401    1.4796   -5.5509 H         1 <0>         0.0530
     51 H18        -0.3543    1.8167   -6.2670 H         1 <0>         0.0480
     52 H19        -0.0810    2.0979   -4.5307 H         1 <0>         0.0574
     53 H20        -0.2430   -1.8980   -6.0511 H         1 <0>         0.0527
     54 H21        -0.4489   -0.5168   -7.1548 H         1 <0>         0.0496
     55 H22         1.1454   -0.8539   -6.4388 H         1 <0>         0.0532
     56 H23        -0.0870   -1.7197    0.4313 H         1 <0>         0.0329
     57 H24         1.4508   -2.0285    1.2868 H         1 <0>         0.1198
     58 H25        -1.2907   -1.4693    2.4255 H         1 <0>         0.0381
     59 H26         0.0342   -2.4749    3.0931 H         1 <0>         0.0633
     60 H27         1.3201    2.6434    1.9392 H         1 <0>         0.0566
     61 H28         0.7075    2.4798    3.5975 H         1 <0>         0.0332
     62 H29         3.1161    1.0133    2.4355 H         1 <0>         0.1571
     63 H30         3.1716    2.3875    3.5696 H         1 <0>         0.0263
     64 H31         3.0840   -1.7908    5.5711 H         1 <0>         0.0996
     65 H32         4.6183   -1.3042    6.3315 H         1 <0>         0.0618
     66 H33         1.9076   -0.0195    6.8882 H         1 <0>         0.0840
     67 H34         2.6931   -1.2292    7.9291 H         1 <0>         0.0757
     68 H35         2.8628    2.3055    6.7210 H         1 <0>         0.1068
     69 H36         4.4962    2.6116    7.3680 H         1 <0>         0.0859
     70 H37         2.9904    1.2375   12.0456 H         1 <0>         0.1038
     71 H38         3.7048    2.8494   11.8011 H         1 <0>         0.1008
     72 H39         2.1037    2.4730   11.1206 H         1 <0>         0.0941
     73 H40         4.6190    0.3687    2.9926 H         1 <0>         0.0876
     74 H41         5.7154   -0.4005    4.1650 H         1 <0>         0.0213
     75 H42         4.3435   -1.3163    3.4959 H         1 <0>         0.0900
     76 H43        -1.6768    0.4355    1.7837 H         1 <0>         0.0487
     77 H44        -1.4470    1.7830    2.9237 H         1 <0>         0.0354
     78 H45        -1.0023    1.9801    1.2115 H         1 <0>         0.0590
@<TRIPOS>BOND
     1    1    2 1
     2    1   40 1
     3    1   41 1
     4    1   42 1
     5    2    3 1
     6    2    4 1
     7    2   10 1
     8    4    5 1
     9    4   43 1
    10    4   44 1
    11    5    6 1
    12    5   45 1
    13    5   46 1
    14    6    7 1
    15    6   47 1
    16    6   48 1
    17    7    8 1
    18    7    9 1
    19    7   49 1
    20    8   50 1
    21    8   51 1
    22    8   52 1
    23    9   53 1
    24    9   54 1
    25    9   55 1
    26   10   11 1
    27   10   16 1
    28   10   12 1
    29   12   13 1
    30   12   56 1
    31   12   57 1
    32   13   14 1
    33   13   58 1
    34   13   59 1
    35   14   15 1
    36   14   21 1
    37   14   16 1
    38   16   17 1
    39   16   39 1
    40   17   18 1
    41   17   60 1
    42   17   61 1
    43   18   19 1
    44   18   62 1
    45   18   63 1
    46   19   20 1
    47   19   21 1
    48   19   26 1
    49   21   22 1
    50   21   23 1
    51   23   24 2
    52   23   25 1
    53   26   32 1
    54   26   27 1
    55   26   38 1
    56   27   28 1
    57   27   64 1
    58   27   65 1
    59   28   29 1
    60   28   66 1
    61   28   67 1
    62   29   30 1
    63   29   31 1
    64   29   34 1
    65   31   32 1
    66   31   68 1
    67   31   69 1
    68   32   33 2
    69   34   35 1
    70   35   36 2
    71   35   37 1
    72   37   70 1
    73   37   71 1
    74   37   72 1
    75   38   73 1
    76   38   74 1
    77   38   75 1
    78   39   76 1
    79   39   77 1
    80   39   78 1
@<TRIPOS>MOLECULE
ZINC44323016
   55    59     0     0     0
SMALL
USER_CHARGES

@<TRIPOS>ATOM
      1 C1         -0.0184    1.5028    0.0103 C.3       1 <0>        -0.1126
      2 C2          0.0021   -0.0041    0.0020 C.ar      1 <0>        -0.0923
      3 C3          0.0054   -0.6757   -1.2134 C.ar      1 <0>        -0.1063
      4 C4          0.0241   -2.0560   -1.2276 C.ar      1 <0>        -0.0722
      5 C5          0.0392   -2.7474   -0.0350 C.ar      1 <0>        -0.1240
      6 C6          0.0362   -2.0892    1.2138 C.ar      1 <0>        -0.0712
      7 C7          0.0224   -0.6744    1.1845 C.ar      1 <0>        -0.0815
      8 C8          0.0538   -2.9765    2.3674 C.2       1 <0>        -0.1600
      9 C9          0.0709   -4.3033    2.1750 C.2       1 <0>        -0.0883
     10 S1          0.0647   -4.4672    0.4000 S.3       1 <0>         0.0237
     11 C10         0.0914   -5.3961    3.2126 C.3       1 <0>        -0.0378
     12 C11        -1.3440   -5.7856    3.5715 C.3       1 <0>         0.0999
     13 H1         -1.8935   -4.8982    3.8857 H         1 <0>         0.0900
     14 C12        -1.3260   -6.7894    4.6954 C.2       1 <0>         0.4929
     15 O1         -1.3564   -6.4088    5.8533 O.co2     1 <0>        -0.6860
     16 O2         -1.2811   -7.9822    4.4467 O.co2     1 <0>        -0.6815
     17 N1         -1.9972   -6.3754    2.4003 N.am      1 <0>        -0.6719
     18 C13        -3.3395   -6.3347    2.2856 C.2       1 <0>         0.6501
     19 O3         -4.0078   -5.8088    3.1535 O.2       1 <0>        -0.5729
     20 O4         -3.9399   -6.8767    1.2093 O.3       1 <0>        -0.3673
     21 C14        -5.3656   -6.7975    1.1531 C.3       1 <0>         0.1078
     22 C15        -5.8630   -7.4618   -0.1323 C.3       1 <0>        -0.0079
     23 C16        -5.6286   -8.9513   -0.0717 C.ar      1 <0>        -0.0791
     24 C17        -4.4793   -9.7032    0.0489 C.ar      1 <0>        -0.0827
     25 C18        -4.5553  -11.0845    0.0795 C.ar      1 <0>        -0.1100
     26 C19        -5.7838  -11.7137   -0.0109 C.ar      1 <0>        -0.1201
     27 C20        -6.9389  -10.9692   -0.1318 C.ar      1 <0>        -0.0989
     28 C21        -6.8698   -9.5752   -0.1633 C.ar      1 <0>        -0.0641
     29 C22        -7.9323   -8.5464   -0.2837 C.ar      1 <0>        -0.0453
     30 C23        -7.3549   -7.2796   -0.2674 C.ar      1 <0>        -0.0845
     31 C24        -8.1448   -6.1539   -0.3671 C.ar      1 <0>        -0.0942
     32 C25        -9.5179   -6.2793   -0.4836 C.ar      1 <0>        -0.1156
     33 C26       -10.1008   -7.5336   -0.5002 C.ar      1 <0>        -0.1171
     34 C27        -9.3182   -8.6652   -0.4015 C.ar      1 <0>        -0.0991
     35 H2          1.0042    1.8801    0.0026 H         1 <0>         0.0688
     36 H3         -0.5455    1.8639   -0.8728 H         1 <0>         0.0657
     37 H4         -0.5286    1.8543    0.9071 H         1 <0>         0.0655
     38 H5         -0.0069   -0.1222   -2.1407 H         1 <0>         0.1297
     39 H6          0.0265   -2.5904   -2.1662 H         1 <0>         0.1283
     40 H7          0.0237   -0.1211    2.1120 H         1 <0>         0.1230
     41 H8          0.0534   -2.5703    3.3681 H         1 <0>         0.1386
     42 H9          0.6151   -6.2652    2.8146 H         1 <0>         0.0896
     43 H10         0.6052   -5.0397    4.1054 H         1 <0>         0.1100
     44 H11        -1.4638   -6.7952    1.7075 H         1 <0>         0.3975
     45 H12        -5.7922   -7.3099    2.0155 H         1 <0>         0.0704
     46 H13        -5.6721   -5.7515    1.1637 H         1 <0>         0.0714
     47 H14        -5.3531   -7.0354   -0.9961 H         1 <0>         0.1127
     48 H15        -3.5191   -9.2139    0.1192 H         1 <0>         0.1325
     49 H16        -3.6541  -11.6722    0.1736 H         1 <0>         0.1285
     50 H17        -5.8390  -12.7920    0.0130 H         1 <0>         0.1249
     51 H18        -7.8960  -11.4644   -0.2023 H         1 <0>         0.1202
     52 H19        -7.6915   -5.1737   -0.3539 H         1 <0>         0.1266
     53 H20       -10.1353   -5.3966   -0.5612 H         1 <0>         0.1273
     54 H21       -11.1730   -7.6272   -0.5906 H         1 <0>         0.1256
     55 H22        -9.7775   -9.6426   -0.4150 H         1 <0>         0.1227
@<TRIPOS>BOND
     1    1    2 1
     2    1   35 1
     3    1   36 1
     4    1   37 1
     5    2    7 ar
     6    2    3 ar
     7    3    4 ar
     8    3   38 1
     9    4    5 ar
    10    4   39 1
    11    5   10 1
    12    5    6 ar
    13    6    7 ar
    14    6    8 1
    15    7   40 1
    16    8    9 2
    17    8   41 1
    18    9   10 1
    19    9   11 1
    20   11   12 1
    21   11   42 1
    22   11   43 1
    23   12   13 1
    24   12   14 1
    25   12   17 1
    26   14   15 2
    27   14   16 1
    28   17   18 am
    29   17   44 1
    30   18   19 2
    31   18   20 1
    32   20   21 1
    33   21   22 1
    34   21   45 1
    35   21   46 1
    36   22   30 1
    37   22   23 1
    38   22   47 1
    39   23   28 ar
    40   23   24 ar
    41   24   25 ar
    42   24   48 1
    43   25   26 ar
    44   25   49 1
    45   26   27 ar
    46   26   50 1
    47   27   28 ar
    48   27   51 1
    49   28   29 1
    50   29   34 ar
    51   29   30 ar
    52   30   31 ar
    53   31   32 ar
    54   31   52 1
    55   32   33 ar
    56   32   53 1
    57   33   34 ar
    58   33   54 1
    59   34   55 1
@<TRIPOS>MOLECULE
ZINC59105433
   49    51     0     0     0
SMALL
USER_CHARGES

@<TRIPOS>ATOM
      1 C1          0.4357    1.4835   -0.3062 C.3       1 <0>        -0.1439
      2 C2          0.3811   -0.0448   -0.2592 C.3       1 <0>         0.0631
      3 O1          1.0187   -0.5077    0.9329 O.3       1 <0>        -0.3413
      4 C3          1.0568   -1.8420    1.1285 C.2       1 <0>         0.5372
      5 C4          1.6938   -2.3878    2.3275 C.2       1 <0>        -0.4208
      6 C5          1.7569   -3.7375    2.5575 C.2       1 <0>         0.3494
      7 O2          1.2269   -4.6136    1.6741 O.3       1 <0>        -0.5774
      8 C6          2.3888   -4.1956    3.7388 C.2       1 <0>        -0.1225
      9 C7          2.5614   -5.4807    4.1603 C.2       1 <0>        -0.0107
     10 C8          3.3885   -5.7611    5.3380 C.ar      1 <0>        -0.0834
     11 C9          4.3291   -4.8194    5.7775 C.ar      1 <0>        -0.0591
     12 C10         5.1025   -5.0875    6.8838 C.ar      1 <0>        -0.1934
     13 C11         4.9527   -6.2898    7.5657 C.ar      1 <0>         0.1419
     14 C12         4.0212   -7.2291    7.1344 C.ar      1 <0>        -0.0696
     15 C13         3.2376   -6.9693    6.0320 C.ar      1 <0>        -0.0522
     16 Cl1         3.8414   -8.7279    7.9916 Cl        1 <0>        -0.0604
     17 O3          5.7187   -6.5486    8.6564 O.3       1 <0>        -0.2991
     18 C14         6.6555   -5.5418    9.0450 C.3       1 <0>         0.0832
     19 C15         7.4098   -6.0019   10.2658 C.2       1 <0>        -0.1539
     20 C16         8.7097   -5.8518   10.3277 C.2       1 <0>        -0.1714
     21 S1          2.9056   -2.6904    4.5435 S.3       1 <0>        -0.1150
     22 C17         2.3039   -1.5151    3.3432 C.2       1 <0>         0.3092
     23 N1          2.3843   -0.1974    3.3623 N.2       1 <0>        -0.4971
     24 C18         2.9973    0.4342    4.4064 C.ar      1 <0>         0.1416
     25 C19         2.7319    0.0379    5.7205 C.ar      1 <0>        -0.1600
     26 C20         3.3549    0.6798    6.7699 C.ar      1 <0>        -0.0845
     27 C21         4.2414    1.7152    6.5245 C.ar      1 <0>        -0.0682
     28 C22         4.5091    2.1131    5.2251 C.ar      1 <0>        -0.0917
     29 C23         3.8977    1.4763    4.1658 C.ar      1 <0>        -0.1158
     30 Cl2         5.0204    2.5185    7.8517 Cl        1 <0>        -0.0891
     31 O4          0.5617   -2.5914    0.3081 O.2       1 <0>        -0.5294
     32 H1          1.4755    1.8103   -0.2999 H         1 <0>         0.0617
     33 H2         -0.0506    1.8367   -1.2156 H         1 <0>         0.0661
     34 H3         -0.0789    1.8924    0.5633 H         1 <0>         0.0616
     35 H4         -0.6587   -0.3716   -0.2655 H         1 <0>         0.0528
     36 H5          0.8958   -0.4536   -1.1287 H         1 <0>         0.0529
     37 H6          2.0888   -6.2920    3.6266 H         1 <0>         0.1531
     38 H7          4.4469   -3.8851    5.2487 H         1 <0>         0.1520
     39 H8          5.8277   -4.3625    7.2228 H         1 <0>         0.1387
     40 H9          2.5116   -7.6969    5.7004 H         1 <0>         0.1458
     41 H10         7.3570   -5.3643    8.2299 H         1 <0>         0.0707
     42 H11         6.1228   -4.6187    9.2734 H         1 <0>         0.0763
     43 H12         6.8787   -6.4552   11.0897 H         1 <0>         0.1202
     44 H13         9.2503   -6.1815   11.2026 H         1 <0>         0.1075
     45 H14         9.2408   -5.3985    9.5038 H         1 <0>         0.1002
     46 H15         2.0403   -0.7689    5.9134 H         1 <0>         0.1345
     47 H16         3.1509    0.3747    7.7856 H         1 <0>         0.1274
     48 H17         5.2012    2.9215    5.0410 H         1 <0>         0.1295
     49 H18         4.1104    1.7848    3.1529 H         1 <0>         0.1333
@<TRIPOS>BOND
     1    1    2 1
     2    1   32 1
     3    1   33 1
     4    1   34 1
     5    2    3 1
     6    2   35 1
     7    2   36 1
     8    3    4 1
     9    4    5 1
    10    4   31 2
    11    5   22 1
    12    5    6 2
    13    6    7 1
    14    6    8 1
    15    8    9 2
    16    8   21 1
    17    9   10 1
    18    9   37 1
    19   10   15 ar
    20   10   11 ar
    21   11   12 ar
    22   11   38 1
    23   12   13 ar
    24   12   39 1
    25   13   14 ar
    26   13   17 1
    27   14   15 ar
    28   14   16 1
    29   15   40 1
    30   17   18 1
    31   18   19 1
    32   18   41 1
    33   18   42 1
    34   19   20 2
    35   19   43 1
    36   20   44 1
    37   20   45 1
    38   21   22 1
    39   22   23 2
    40   23   24 1
    41   24   29 ar
    42   24   25 ar
    43   25   26 ar
    44   25   46 1
    45   26   27 ar
    46   26   47 1
    47   27   28 ar
    48   27   30 1
    49   28   29 ar
    50   28   48 1
    51   29   49 1
@<TRIPOS>MOLECULE
ZINC20581511
   64    67     0     0     0
SMALL
USER_CHARGES
(1S,2S,3R,4R)-3-[[(6S)-3-ethoxycarbonyl-6-ethyl-4,5,6,7-tetrahydrobenzothiophen-2-yl]carbamoyl]-7-isopropylidene-norbornane-2-carboxylic acid
@<TRIPOS>ATOM
      1 C1          5.0279   -0.2014   12.2934 C.3       1 <0>        -0.1564
      2 C2          5.1394    0.5552   10.9682 C.3       1 <0>        -0.1188
      3 C3          3.7947    0.5090   10.2399 C.3       1 <0>        -0.0821
      4 H1          3.0139    0.9063   10.9051 H         1 <0>         0.0749
      5 C4          3.8718    1.3549    8.9656 C.3       1 <0>        -0.1117
      6 C5          2.4747    1.5172    8.3639 C.3       1 <0>        -0.0609
      7 C6          1.8487    0.1372    8.2032 C.2       1 <0>        -0.0518
      8 C7          2.3217   -0.9253    8.8896 C.2       1 <0>        -0.2349
      9 S1          1.2942   -2.2789    8.3934 S.3       1 <0>         0.2334
     10 C8          0.2442   -1.4459    7.2955 C.2       1 <0>         0.1378
     11 C9          0.7136   -0.1396    7.3387 C.2       1 <0>        -0.2492
     12 C10         0.0922    0.9178    6.5387 C.2       1 <0>         0.5444
     13 O1         -0.8265    1.5686    6.9993 O.2       1 <0>        -0.5115
     14 O2          0.5385    1.1702    5.2911 O.3       1 <0>        -0.3414
     15 C11        -0.1245    2.2325    4.5561 C.3       1 <0>         0.0586
     16 C12         0.5139    2.3708    3.1726 C.3       1 <0>        -0.1552
     17 N1         -0.8084   -1.9588    6.5538 N.am      1 <0>        -0.6224
     18 C13        -1.1207   -3.2669    6.6422 C.2       1 <0>         0.5228
     19 O3         -0.4252   -4.0134    7.2980 O.2       1 <0>        -0.4793
     20 C14        -2.3341   -3.8020    5.9264 C.3       1 <0>        -0.0740
     21 H2         -3.0384   -2.9578    5.8894 H         1 <0>         0.0834
     22 C15        -2.8960   -5.0538    6.6662 C.3       1 <0>        -0.0449
     23 H3         -2.9342   -4.9719    7.7625 H         1 <0>         0.0955
     24 C16        -4.2628   -5.3422    5.9742 C.3       1 <0>        -0.1175
     25 C17        -3.8752   -5.8717    4.5525 C.3       1 <0>        -0.1173
     26 C18        -2.3166   -5.8445    4.5717 C.3       1 <0>        -0.0327
     27 H4         -1.8350   -6.4715    3.8069 H         1 <0>         0.0946
     28 C19        -1.9465   -4.3308    4.5254 C.3       1 <0>        -0.1244
     29 H5         -2.4344   -3.7816    3.7067 H         1 <0>         0.0821
     30 C20        -0.4689   -4.1563    4.2861 C.2       1 <0>         0.4536
     31 O4          0.2987   -5.0440    4.5737 O.co2     1 <0>        -0.6086
     32 O5         -0.0055   -3.0147    3.7534 O.co2     1 <0>        -0.7669
     33 C21        -2.0199   -6.1700    6.0533 C.2       1 <0>        -0.1069
     34 C22        -1.2704   -7.0902    6.6080 C.2       1 <0>        -0.0956
     35 C23        -0.5122   -8.0656    5.7449 C.3       1 <0>        -0.1074
     36 C24        -1.1663   -7.1733    8.1091 C.3       1 <0>        -0.1054
     37 C25         3.4688   -0.9407    9.8522 C.3       1 <0>        -0.0229
     38 H6          5.9947   -0.1682   12.8170 H         1 <0>         0.0514
     39 H7          4.7536   -1.2482   12.0960 H         1 <0>         0.0583
     40 H8          4.2553    0.2683   12.9199 H         1 <0>         0.0534
     41 H9          5.4137    1.6020   11.1656 H         1 <0>         0.0621
     42 H10         5.9120    0.0856   10.3417 H         1 <0>         0.0638
     43 H11         4.2801    2.3471    9.2083 H         1 <0>         0.0663
     44 H12         4.5264    0.8578    8.2346 H         1 <0>         0.0682
     45 H13         1.8561    2.1324    9.0339 H         1 <0>         0.0747
     46 H14         2.5528    2.0086    7.3829 H         1 <0>         0.0706
     47 H15        -1.1918    1.9906    4.4449 H         1 <0>         0.0686
     48 H16        -0.0185    3.1797    5.1052 H         1 <0>         0.0658
     49 H17         0.0116    3.1756    2.6158 H         1 <0>         0.0766
     50 H18         0.4079    1.4236    2.6235 H         1 <0>         0.0737
     51 H19         1.5812    2.6127    3.2838 H         1 <0>         0.0652
     52 H20        -1.3889   -1.2982    5.8930 H         1 <0>         0.4404
     53 H21        -4.8169   -6.0937    6.5558 H         1 <0>         0.0635
     54 H22        -4.8501   -4.4136    5.9211 H         1 <0>         0.0621
     55 H23        -4.2760   -6.8871    4.4176 H         1 <0>         0.0607
     56 H24        -4.2976   -5.2059    3.7855 H         1 <0>         0.0638
     57 H25         0.0562   -8.7566    6.3849 H         1 <0>         0.0473
     58 H26         0.1817   -7.5153    5.0924 H         1 <0>         0.0827
     59 H27        -1.2211   -8.6368    5.1275 H         1 <0>         0.0504
     60 H28        -0.4972   -8.0017    8.3849 H         1 <0>         0.0508
     61 H29        -2.1643   -7.3501    8.5366 H         1 <0>         0.0508
     62 H30        -0.7614   -6.2287    8.5014 H         1 <0>         0.0719
     63 H31         4.3497   -1.4011    9.3810 H         1 <0>         0.0789
     64 H32         3.1963   -1.5090   10.7538 H         1 <0>         0.0770
@<TRIPOS>BOND
     1    1    2 1
     2    1   38 1
     3    1   39 1
     4    1   40 1
     5    2    3 1
     6    2   41 1
     7    2   42 1
     8    3    4 1
     9    3   37 1
    10    3    5 1
    11    5    6 1
    12    5   43 1
    13    5   44 1
    14    6    7 1
    15    6   45 1
    16    6   46 1
    17    7   11 1
    18    7    8 2
    19    8    9 1
    20    8   37 1
    21    9   10 1
    22   10   11 2
    23   10   17 1
    24   11   12 1
    25   12   13 2
    26   12   14 1
    27   14   15 1
    28   15   16 1
    29   15   47 1
    30   15   48 1
    31   16   49 1
    32   16   50 1
    33   16   51 1
    34   17   18 am
    35   17   52 1
    36   18   19 2
    37   18   20 1
    38   20   21 1
    39   20   28 1
    40   20   22 1
    41   22   23 1
    42   22   33 1
    43   22   24 1
    44   24   25 1
    45   24   53 1
    46   24   54 1
    47   25   26 1
    48   25   55 1
    49   25   56 1
    50   26   27 1
    51   26   28 1
    52   26   33 1
    53   28   29 1
    54   28   30 1
    55   30   31 2
    56   30   32 1
    57   33   34 2
    58   34   35 1
    59   34   36 1
    60   35   57 1
    61   35   58 1
    62   35   59 1
    63   36   60 1
    64   36   61 1
    65   36   62 1
    66   37   63 1
    67   37   64 1
@<TRIPOS>MOLECULE
ZINC35693408
   55    57     0     0     0
SMALL
USER_CHARGES

@<TRIPOS>ATOM
      1 C1          0.7745   -1.5563    0.2443 C.3       1 <0>        -0.1672
      2 C2          0.5635   -0.0950   -0.1571 C.3       1 <0>         0.1269
      3 N1         -0.8655    0.2236   -0.1073 N.pl3     1 <0>        -0.6331
      4 C3         -1.4596    0.7337    1.1309 C.3       1 <0>         0.1309
      5 C4         -1.3799    2.2615    1.1432 C.3       1 <0>        -0.1622
      6 C5         -1.6547    0.0427   -1.2306 C.2       1 <0>         0.5028
      7 O1         -2.9768    0.3375   -1.1846 O.3       1 <0>        -0.7014
      8 C6         -1.1085   -0.4262   -2.3690 C.2       1 <0>        -0.4708
      9 C7         -1.9647   -0.7277   -3.5252 C.2       1 <0>         0.2311
     10 C8         -3.2844   -0.4374   -3.5131 C.2       1 <0>        -0.3034
     11 S1         -3.8010   -1.0028   -5.1218 S.3       1 <0>         0.1303
     12 C9         -2.3216   -1.5599   -5.6859 C.2       1 <0>         0.3370
     13 N2         -1.9770   -2.1152   -6.8294 N.2       1 <0>        -0.5940
     14 C10        -0.7524   -2.5095   -7.1384 C.2       1 <0>         0.3110
     15 C11         0.2821   -2.3532   -6.2358 C.2       1 <0>        -0.3956
     16 C12        -0.0376   -1.7220   -4.8991 C.3       1 <0>         0.2643
     17 H1          0.2448   -2.4283   -4.1184 H         1 <0>         0.0755
     18 N3         -1.4479   -1.3123   -4.6642 N.pl3     1 <0>        -0.5113
     19 C13         0.8271   -0.4973   -4.7457 C.ar      1 <0>        -0.0651
     20 C14         1.8967   -0.5116   -3.8701 C.ar      1 <0>        -0.0696
     21 C15         2.6899    0.6116   -3.7293 C.ar      1 <0>        -0.1225
     22 C16         2.4141    1.7499   -4.4640 C.ar      1 <0>        -0.1105
     23 C17         1.3451    1.7654   -5.3397 C.ar      1 <0>        -0.1185
     24 C18         0.5541    0.6394   -5.4853 C.ar      1 <0>        -0.0123
     25 Cl1        -0.7850    0.6558   -6.5899 Cl        1 <0>        -0.0648
     26 C19         1.5830   -2.7659   -6.5482 C.2       1 <0>         0.5364
     27 O2          1.8404   -3.1752   -7.6669 O.2       1 <0>        -0.5510
     28 O3          2.5533   -2.7103   -5.6092 O.3       1 <0>        -0.3577
     29 C20         3.8794   -3.0418   -6.0261 C.3       1 <0>         0.0666
     30 C21         4.8103   -3.0437   -4.8119 C.3       1 <0>        -0.1499
     31 C22        -0.4841   -3.1337   -8.4835 C.3       1 <0>        -0.0925
     32 H2          0.4025   -1.7122    1.2570 H         1 <0>         0.0474
     33 H3          0.2335   -2.2042   -0.4453 H         1 <0>         0.0600
     34 H4          1.8378   -1.7933    0.2073 H         1 <0>         0.0516
     35 H5          1.1045    0.5530    0.5325 H         1 <0>         0.0533
     36 H6          0.9355    0.0609   -1.1697 H         1 <0>         0.0731
     37 H7         -2.5031    0.4238    1.1877 H         1 <0>         0.0749
     38 H8         -0.9150    0.3345    1.9865 H         1 <0>         0.0493
     39 H9         -0.3365    2.5714    1.0863 H         1 <0>         0.0426
     40 H10        -1.9246    2.6607    0.2875 H         1 <0>         0.0596
     41 H11        -1.8220    2.6410    2.0644 H         1 <0>         0.0491
     42 H12        -0.0415   -0.5807   -2.4323 H         1 <0>         0.0970
     43 H13        -3.8732    0.0190   -2.7312 H         1 <0>         0.2360
     44 H14         2.1124   -1.4003   -3.2957 H         1 <0>         0.1273
     45 H15         3.5252    0.6001   -3.0449 H         1 <0>         0.1229
     46 H16         3.0341    2.6273   -4.3533 H         1 <0>         0.1240
     47 H17         1.1296    2.6547   -5.9133 H         1 <0>         0.1249
     48 H18         3.8794   -4.0302   -6.4855 H         1 <0>         0.0596
     49 H19         4.2276   -2.3048   -6.7497 H         1 <0>         0.0561
     50 H20         5.8362   -3.2090   -5.1408 H         1 <0>         0.0709
     51 H21         4.7428   -2.0833   -4.3008 H         1 <0>         0.0653
     52 H22         4.5149   -3.8403   -4.1289 H         1 <0>         0.0619
     53 H23        -1.4107   -3.1749   -9.0562 H         1 <0>         0.0632
     54 H24         0.2497   -2.5343   -9.0223 H         1 <0>         0.0881
     55 H25        -0.0974   -4.1433   -8.3449 H         1 <0>         0.0826
@<TRIPOS>BOND
     1    1    2 1
     2    1   32 1
     3    1   33 1
     4    1   34 1
     5    2    3 1
     6    2   35 1
     7    2   36 1
     8    3    4 1
     9    3    6 1
    10    4    5 1
    11    4   37 1
    12    4   38 1
    13    5   39 1
    14    5   40 1
    15    5   41 1
    16    6    7 1
    17    6    8 2
    18    8    9 1
    19    8   42 1
    20    9   18 1
    21    9   10 2
    22   10   11 1
    23   10   43 1
    24   11   12 1
    25   12   18 1
    26   12   13 2
    27   13   14 1
    28   14   15 2
    29   14   31 1
    30   15   16 1
    31   15   26 1
    32   16   17 1
    33   16   18 1
    34   16   19 1
    35   19   24 ar
    36   19   20 ar
    37   20   21 ar
    38   20   44 1
    39   21   22 ar
    40   21   45 1
    41   22   23 ar
    42   22   46 1
    43   23   24 ar
    44   23   47 1
    45   24   25 1
    46   26   27 2
    47   26   28 1
    48   28   29 1
    49   29   30 1
    50   29   48 1
    51   29   49 1
    52   30   50 1
    53   30   51 1
    54   30   52 1
    55   31   53 1
    56   31   54 1
    57   31   55 1
@<TRIPOS>MOLECULE
ZINC39557073
   60    64     0     0     0
SMALL
USER_CHARGES

@<TRIPOS>ATOM
      1 C1          0.3789   -4.0418    0.8088 C.3       1 <0>        -0.1431
      2 C2         -0.1430   -2.8519    1.6166 C.3       1 <0>         0.1968
      3 H1         -0.2288   -3.1346    2.6658 H         1 <0>         0.0916
      4 C3          0.8150   -1.6961    1.4845 C.ar      1 <0>        -0.0659
      5 C4          0.8556   -0.9624    0.3136 C.ar      1 <0>        -0.0982
      6 C5          1.7344    0.0977    0.1925 C.ar      1 <0>        -0.1222
      7 C6          2.5722    0.4245    1.2423 C.ar      1 <0>        -0.1245
      8 C7          2.5309   -0.3086    2.4135 C.ar      1 <0>        -0.1213
      9 C8          1.6491   -1.3661    2.5363 C.ar      1 <0>        -0.0853
     10 N1         -1.4588   -2.4560    1.1084 N.am      1 <0>        -0.5679
     11 C9         -2.0707   -2.9659    0.0173 C.2       1 <0>         0.5107
     12 O1         -1.6470   -3.8311   -0.7289 O.2       1 <0>        -0.5112
     13 C10        -3.3545   -2.2580   -0.0807 C.2       1 <0>        -0.0085
     14 C11        -4.3316   -2.4370   -1.0394 C.2       1 <0>        -0.0140
     15 C12        -4.0821   -3.2698   -2.1584 C.2       1 <0>        -0.1487
     16 C13        -2.9133   -3.3504   -2.8854 C.2       1 <0>         0.1220
     17 N2         -3.0618   -4.2604   -3.8805 N.pl3     1 <0>        -0.4691
     18 C14        -4.3266   -4.8115   -3.8482 C.ar      1 <0>         0.0930
     19 C15        -5.0194   -4.2291   -2.7749 C.ar      1 <0>        -0.0767
     20 C16        -6.3307   -4.6076   -2.5018 C.ar      1 <0>        -0.0710
     21 C17        -6.9442   -5.5593   -3.2877 C.ar      1 <0>        -0.1488
     22 C18        -6.2605   -6.1386   -4.3463 C.ar      1 <0>        -0.1095
     23 C19        -4.9647   -5.7671   -4.6327 C.ar      1 <0>        -0.1290
     24 C20        -2.0241   -4.6090   -4.8542 C.3       1 <0>         0.1515
     25 C21        -2.2123   -3.7888   -6.1043 C.ar      1 <0>        -0.1225
     26 C22        -3.0144   -4.2635   -7.1273 C.ar      1 <0>        -0.0606
     27 C23        -3.1926   -3.5170   -8.2783 C.ar      1 <0>        -0.1324
     28 C24        -2.5704   -2.2930   -8.4137 C.ar      1 <0>        -0.0550
     29 C25        -1.7598   -1.8081   -7.3856 C.ar      1 <0>        -0.1267
     30 C26        -1.5892   -2.5641   -6.2239 C.ar      1 <0>        -0.0328
     31 C27        -1.0905   -0.4984   -7.5236 C.2       1 <0>         0.5062
     32 O2         -0.3858   -0.0791   -6.6274 O.2       1 <0>        -0.4971
     33 O3         -1.2615    0.2308   -8.6432 O.3       1 <0>        -0.3509
     34 C28        -0.5844    1.4875   -8.7087 C.3       1 <0>         0.0341
     35 N3         -3.3838   -1.3853    0.9730 N.2       1 <0>        -0.5556
     36 C29        -2.2815   -1.5090    1.6629 C.2       1 <0>         0.4986
     37 S1         -1.9001   -0.5797    3.1105 S.3       1 <0>        -0.7657
     38 H2          1.3578   -4.3363    1.1869 H         1 <0>         0.0621
     39 H3         -0.3141   -4.8778    0.9044 H         1 <0>         0.0640
     40 H4          0.4646   -3.7591   -0.2404 H         1 <0>         0.0714
     41 H5          0.2011   -1.2177   -0.5066 H         1 <0>         0.1056
     42 H6          1.7667    0.6705   -0.7226 H         1 <0>         0.1141
     43 H7          3.2593    1.2523    1.1474 H         1 <0>         0.1143
     44 H8          3.1857   -0.0535    3.2336 H         1 <0>         0.1167
     45 H9          1.6142   -1.9365    3.4527 H         1 <0>         0.1189
     46 H10        -5.2861   -1.9424   -0.9366 H         1 <0>         0.1299
     47 H11        -2.0184   -2.7774   -2.6928 H         1 <0>         0.1666
     48 H12        -6.8648   -4.1581   -1.6778 H         1 <0>         0.1220
     49 H13        -7.9615   -5.8554   -3.0782 H         1 <0>         0.1189
     50 H14        -6.7505   -6.8833   -4.9559 H         1 <0>         0.1194
     51 H15        -4.4409   -6.2257   -5.4583 H         1 <0>         0.1117
     52 H16        -1.0422   -4.4024   -4.4284 H         1 <0>         0.1035
     53 H17        -2.0979   -5.6683   -5.1001 H         1 <0>         0.0980
     54 H18        -3.5032   -5.2213   -7.0267 H         1 <0>         0.1306
     55 H19        -3.8199   -3.8933   -9.0728 H         1 <0>         0.1349
     56 H20        -2.7097   -1.7116   -9.3131 H         1 <0>         0.1396
     57 H21        -0.9671   -2.1928   -5.4230 H         1 <0>         0.1390
     58 H22        -0.9202    2.1243   -7.8903 H         1 <0>         0.0630
     59 H23         0.4904    1.3259   -8.6258 H         1 <0>         0.0617
     60 H24        -0.8068    1.9709   -9.6600 H         1 <0>         0.1035
@<TRIPOS>BOND
     1    1    2 1
     2    1   38 1
     3    1   39 1
     4    1   40 1
     5    2    3 1
     6    2    4 1
     7    2   10 1
     8    4    9 ar
     9    4    5 ar
    10    5    6 ar
    11    5   41 1
    12    6    7 ar
    13    6   42 1
    14    7    8 ar
    15    7   43 1
    16    8    9 ar
    17    8   44 1
    18    9   45 1
    19   10   36 1
    20   10   11 am
    21   11   12 2
    22   11   13 1
    23   13   14 2
    24   13   35 1
    25   14   15 1
    26   14   46 1
    27   15   19 1
    28   15   16 2
    29   16   17 1
    30   16   47 1
    31   17   18 1
    32   17   24 1
    33   18   23 ar
    34   18   19 ar
    35   19   20 ar
    36   20   21 ar
    37   20   48 1
    38   21   22 ar
    39   21   49 1
    40   22   23 ar
    41   22   50 1
    42   23   51 1
    43   24   25 1
    44   24   52 1
    45   24   53 1
    46   25   30 ar
    47   25   26 ar
    48   26   27 ar
    49   26   54 1
    50   27   28 ar
    51   27   55 1
    52   28   29 ar
    53   28   56 1
    54   29   30 ar
    55   29   31 1
    56   30   57 1
    57   31   32 2
    58   31   33 1
    59   33   34 1
    60   34   58 1
    61   34   59 1
    62   34   60 1
    63   35   36 2
    64   36   37 1
@<TRIPOS>MOLECULE
ZINC39899047
   56    60     0     0     0
SMALL
USER_CHARGES

@<TRIPOS>ATOM
      1 C1          2.3408   -1.7592   -1.0490 C.2       1 <0>        -0.1665
      2 C2          1.1430   -1.3315   -1.3626 C.2       1 <0>        -0.1601
      3 C3          0.0319   -2.3185   -1.6122 C.3       1 <0>         0.0879
      4 O1         -1.1516   -1.8836   -0.9398 O.3       1 <0>        -0.3084
      5 C4         -2.2550   -2.6673   -1.0636 C.ar      1 <0>         0.1441
      6 C5         -2.1981   -3.8340   -1.8122 C.ar      1 <0>        -0.2021
      7 C6         -3.3209   -4.6291   -1.9362 C.ar      1 <0>        -0.0366
      8 C7         -4.5008   -4.2629   -1.3154 C.ar      1 <0>        -0.1382
      9 C8         -4.5602   -3.1004   -0.5692 C.ar      1 <0>        -0.0670
     10 C9         -3.4385   -2.3050   -0.4370 C.ar      1 <0>        -0.1456
     11 C10        -5.7243   -5.1320   -1.4528 C.3       1 <0>         0.2509
     12 H1         -6.5836   -4.6450   -0.9916 H         1 <0>         0.1119
     13 C11        -5.4826   -6.4712   -0.8120 C.2       1 <0>        -0.1678
     14 C12        -5.1830   -7.1839    0.3540 C.2       1 <0>         0.1119
     15 N1         -5.1444   -8.4629    0.0356 N.2       1 <0>        -0.2202
     16 N2         -5.3900   -8.6282   -1.2153 N.pl3     1 <0>        -0.3327
     17 H2         -5.4141   -9.4848   -1.6698 H         1 <0>         0.4540
     18 C13        -5.6118   -7.4184   -1.8095 C.2       1 <0>        -0.0627
     19 C14        -5.9279   -6.7316   -3.0669 C.2       1 <0>         0.6000
     20 O2         -6.1040   -7.2855   -4.1353 O.2       1 <0>        -0.5145
     21 N3         -5.9966   -5.4011   -2.8707 N.am      1 <0>        -0.5912
     22 C15        -6.2917   -4.3952   -3.8939 C.3       1 <0>         0.1825
     23 C16        -5.0063   -3.9362   -4.5327 C.ar      1 <0>        -0.1285
     24 C17        -4.3146   -2.8642   -4.0001 C.ar      1 <0>        -0.0566
     25 C18        -3.1355   -2.4427   -4.5848 C.ar      1 <0>        -0.1543
     26 C19        -2.6469   -3.0946   -5.7043 C.ar      1 <0>         0.1069
     27 C20        -3.3404   -4.1681   -6.2369 C.ar      1 <0>        -0.1592
     28 C21        -4.5166   -4.5911   -5.6474 C.ar      1 <0>        -0.0649
     29 F1         -1.4945   -2.6831   -6.2770 F         1 <0>        -0.1398
     30 C22        -4.9504   -6.6066    1.7013 C.ar      1 <0>        -0.0272
     31 C23        -5.1451   -5.2454    1.9218 C.ar      1 <0>        -0.0736
     32 C24        -4.9272   -4.7128    3.1775 C.ar      1 <0>        -0.0425
     33 C25        -4.5157   -5.5282    4.2183 C.ar      1 <0>        -0.0857
     34 C26        -4.3195   -6.8799    4.0088 C.ar      1 <0>        -0.1333
     35 C27        -4.5406   -7.4276    2.7553 C.ar      1 <0>         0.1379
     36 O3         -4.3537   -8.7578    2.5501 O.3       1 <0>        -0.4774
     37 Cl1        -5.1696   -3.0158    3.4516 Cl        1 <0>        -0.0596
     38 H3          3.1371   -1.0518   -0.8701 H         1 <0>         0.1098
     39 H4          2.5310   -2.8190   -0.9650 H         1 <0>         0.0994
     40 H5          0.9517   -0.2716   -1.4422 H         1 <0>         0.1211
     41 H6         -0.1619   -2.3843   -2.6828 H         1 <0>         0.0721
     42 H7          0.3248   -3.2984   -1.2351 H         1 <0>         0.0670
     43 H8         -1.2769   -4.1201   -2.2979 H         1 <0>         0.1245
     44 H9         -3.2771   -5.5374   -2.5188 H         1 <0>         0.1140
     45 H10        -5.4831   -2.8163   -0.0855 H         1 <0>         0.1328
     46 H11        -3.4842   -1.3994    0.1496 H         1 <0>         0.1345
     47 H12        -6.9404   -4.8299   -4.6544 H         1 <0>         0.1021
     48 H13        -6.7925   -3.5439   -3.4328 H         1 <0>         0.1005
     49 H14        -4.6962   -2.3557   -3.1270 H         1 <0>         0.1320
     50 H15        -2.5955   -1.6050   -4.1687 H         1 <0>         0.1315
     51 H16        -2.9604   -4.6771   -7.1103 H         1 <0>         0.1348
     52 H17        -5.0555   -5.4313   -6.0599 H         1 <0>         0.1356
     53 H18        -5.4657   -4.6069    1.1119 H         1 <0>         0.1401
     54 H19        -4.3470   -5.1058    5.1979 H         1 <0>         0.1410
     55 H20        -3.9981   -7.5111    4.8241 H         1 <0>         0.1433
     56 H21        -3.4551   -8.9916    2.2801 H         1 <0>         0.3923
@<TRIPOS>BOND
     1    1    2 2
     2    1   38 1
     3    1   39 1
     4    2    3 1
     5    2   40 1
     6    3    4 1
     7    3   41 1
     8    3   42 1
     9    4    5 1
    10    5   10 ar
    11    5    6 ar
    12    6    7 ar
    13    6   43 1
    14    7    8 ar
    15    7   44 1
    16    8    9 ar
    17    8   11 1
    18    9   10 ar
    19    9   45 1
    20   10   46 1
    21   11   12 1
    22   11   21 1
    23   11   13 1
    24   13   18 2
    25   13   14 1
    26   14   15 2
    27   14   30 1
    28   15   16 1
    29   16   17 1
    30   16   18 1
    31   18   19 1
    32   19   20 2
    33   19   21 am
    34   21   22 1
    35   22   23 1
    36   22   47 1
    37   22   48 1
    38   23   28 ar
    39   23   24 ar
    40   24   25 ar
    41   24   49 1
    42   25   26 ar
    43   25   50 1
    44   26   27 ar
    45   26   29 1
    46   27   28 ar
    47   27   51 1
    48   28   52 1
    49   30   35 ar
    50   30   31 ar
    51   31   32 ar
    52   31   53 1
    53   32   33 ar
    54   32   37 1
    55   33   34 ar
    56   33   54 1
    57   34   35 ar
    58   34   55 1
    59   35   36 1
    60   36   56 1
@<TRIPOS>MOLECULE
ZINC44324859
   64    68     0     0     0
SMALL
USER_CHARGES

@<TRIPOS>ATOM
      1 C1         -0.0167    1.3784    0.0096 C.ar      1 <0>        -0.1243
      2 C2          1.1697    2.0893    0.0021 C.ar      1 <0>        -0.1268
      3 C3          2.3774    1.4200   -0.0130 C.ar      1 <0>        -0.1259
      4 C4          2.3998    0.0309   -0.0206 C.ar      1 <0>         0.1795
      5 C5          1.2066   -0.6799   -0.0130 C.ar      1 <0>        -0.0778
      6 C6          0.0021   -0.0041    0.0020 C.ar      1 <0>        -0.1123
      7 C7          1.2261   -2.1868   -0.0217 C.3       1 <0>        -0.0671
      8 C8          1.3723   -2.7032    1.4110 C.3       1 <0>         0.1019
      9 H1          2.2567   -2.2598    1.8686 H         1 <0>         0.0907
     10 C9          1.5151   -4.2033    1.3921 C.2       1 <0>         0.4906
     11 O1          2.5338   -4.7133    0.9577 O.co2     1 <0>        -0.6916
     12 O2          0.6120   -4.9070    1.8112 O.co2     1 <0>        -0.6860
     13 N1          0.1849   -2.3354    2.1863 N.am      1 <0>        -0.6691
     14 C10         0.2656   -2.2153    3.5262 C.2       1 <0>         0.6522
     15 O3          1.3232   -2.4121    4.0913 O.2       1 <0>        -0.5770
     16 O4         -0.8257   -1.8773    4.2387 O.3       1 <0>        -0.3699
     17 C11        -0.6677   -1.7680    5.6548 C.3       1 <0>         0.1095
     18 C12        -2.0047   -1.3788    6.2886 C.3       1 <0>        -0.0104
     19 C13        -2.3733    0.0318    5.8990 C.ar      1 <0>        -0.0764
     20 C14        -2.6112    0.6221    4.6760 C.ar      1 <0>        -0.0845
     21 C15        -2.9383    1.9648    4.6068 C.ar      1 <0>        -0.1127
     22 C16        -3.0272    2.7175    5.7640 C.ar      1 <0>        -0.1212
     23 C17        -2.7907    2.1350    6.9919 C.ar      1 <0>        -0.0992
     24 C18        -2.4603    0.7809    7.0693 C.ar      1 <0>        -0.0611
     25 C19        -2.1604   -0.0870    8.2349 C.ar      1 <0>        -0.0492
     26 C20        -1.8860   -1.3784    7.7929 C.ar      1 <0>        -0.0824
     27 C21        -1.5763   -2.3719    8.6973 C.ar      1 <0>        -0.0936
     28 C22        -1.5373   -2.0887   10.0511 C.ar      1 <0>        -0.1136
     29 C23        -1.8088   -0.8088   10.5000 C.ar      1 <0>        -0.1179
     30 C24        -2.1192    0.1915    9.6022 C.ar      1 <0>        -0.0991
     31 N2          3.6196   -0.6494   -0.0363 N.pl3     1 <0>        -0.6726
     32 C25         4.2638   -1.0019   -1.3089 C.3       1 <0>         0.1449
     33 C26         5.6987   -0.4653   -1.3004 C.3       1 <0>        -0.1318
     34 C27         6.4276   -0.9889   -0.0608 C.3       1 <0>        -0.1156
     35 C28         5.7176   -0.4892    1.1995 C.3       1 <0>        -0.1322
     36 C29         4.2859   -1.0207    1.2194 C.3       1 <0>         0.1422
     37 H2         -0.9598    1.9044    0.0260 H         1 <0>         0.1160
     38 H3          1.1515    3.1691    0.0077 H         1 <0>         0.1144
     39 H4          3.3034    1.9757   -0.0192 H         1 <0>         0.1154
     40 H5         -0.9261   -0.5561    0.0079 H         1 <0>         0.1178
     41 H6          0.2953   -2.5597   -0.4491 H         1 <0>         0.0672
     42 H7          2.0667   -2.5358   -0.6214 H         1 <0>         0.0957
     43 H8         -0.6593   -2.1784    1.7352 H         1 <0>         0.3943
     44 H9         -0.3392   -2.7256    6.0587 H         1 <0>         0.0732
     45 H10         0.0769   -1.0042    5.8794 H         1 <0>         0.0669
     46 H11        -2.7847   -2.0721    5.9738 H         1 <0>         0.1145
     47 H12        -2.5420    0.0362    3.7714 H         1 <0>         0.1315
     48 H13        -3.1240    2.4259    3.6480 H         1 <0>         0.1265
     49 H14        -3.2823    3.7653    5.7058 H         1 <0>         0.1240
     50 H15        -2.8609    2.7264    7.8929 H         1 <0>         0.1201
     51 H16        -1.3643   -3.3719    8.3488 H         1 <0>         0.1288
     52 H17        -1.2948   -2.8681   10.7584 H         1 <0>         0.1281
     53 H18        -1.7781   -0.5919   11.5576 H         1 <0>         0.1256
     54 H19        -2.3305    1.1894    9.9570 H         1 <0>         0.1221
     55 H20         4.2797   -2.0858   -1.4225 H         1 <0>         0.0552
     56 H21         3.7111   -0.5539   -2.1347 H         1 <0>         0.0631
     57 H22         6.2184   -0.8022   -2.1974 H         1 <0>         0.0628
     58 H23         5.6796    0.6243   -1.2781 H         1 <0>         0.0580
     59 H24         6.4247   -2.0789   -0.0712 H         1 <0>         0.0653
     60 H25         7.4563   -0.6286   -0.0651 H         1 <0>         0.0541
     61 H26         6.2507   -0.8432    2.0819 H         1 <0>         0.0649
     62 H27         5.6983    0.6006    1.1983 H         1 <0>         0.0566
     63 H28         3.7477   -0.5851    2.0613 H         1 <0>         0.0636
     64 H29         4.3036   -2.1062    1.3166 H         1 <0>         0.0641
@<TRIPOS>BOND
     1    1    6 ar
     2    1    2 ar
     3    1   37 1
     4    2    3 ar
     5    2   38 1
     6    3    4 ar
     7    3   39 1
     8    4    5 ar
     9    4   31 1
    10    5    6 ar
    11    5    7 1
    12    6   40 1
    13    7    8 1
    14    7   41 1
    15    7   42 1
    16    8    9 1
    17    8   10 1
    18    8   13 1
    19   10   11 2
    20   10   12 1
    21   13   14 am
    22   13   43 1
    23   14   15 2
    24   14   16 1
    25   16   17 1
    26   17   18 1
    27   17   44 1
    28   17   45 1
    29   18   26 1
    30   18   19 1
    31   18   46 1
    32   19   24 ar
    33   19   20 ar
    34   20   21 ar
    35   20   47 1
    36   21   22 ar
    37   21   48 1
    38   22   23 ar
    39   22   49 1
    40   23   24 ar
    41   23   50 1
    42   24   25 1
    43   25   30 ar
    44   25   26 ar
    45   26   27 ar
    46   27   28 ar
    47   27   51 1
    48   28   29 ar
    49   28   52 1
    50   29   30 ar
    51   29   53 1
    52   30   54 1
    53   31   36 1
    54   31   32 1
    55   32   33 1
    56   32   55 1
    57   32   56 1
    58   33   34 1
    59   33   57 1
    60   33   58 1
    61   34   35 1
    62   34   59 1
    63   34   60 1
    64   35   36 1
    65   35   61 1
    66   35   62 1
    67   36   63 1
    68   36   64 1
@<TRIPOS>MOLECULE
ZINC05604959
   48    53     0     0     0
SMALL
USER_CHARGES
2-BLAHylacetic acid
@<TRIPOS>ATOM
      1 C1          6.4980   10.2945   -5.0608 C.ar      1 <0>        -0.1365
      2 C2          5.8682    9.1718   -5.5933 C.ar      1 <0>        -0.1101
      3 C3          5.6146    8.0789   -4.8207 C.ar      1 <0>        -0.1164
      4 C4          5.9921    8.0793   -3.4707 C.ar      1 <0>        -0.0019
      5 C5          6.6351    9.2203   -2.9275 C.ar      1 <0>        -0.0760
      6 C6          6.8784   10.3303   -3.7543 C.ar      1 <0>        -0.0868
      7 C7          7.0186    9.2234   -1.5747 C.ar      1 <0>        -0.0577
      8 C8          6.7781    8.1387   -0.7871 C.ar      1 <0>        -0.1022
      9 C9          6.1472    7.0071   -1.3000 C.ar      1 <0>         0.1793
     10 C10         5.7494    6.9681   -2.6349 C.ar      1 <0>        -0.1622
     11 C11         5.0797    5.7539   -3.1375 C.2       1 <0>        -0.0599
     12 C12         4.5803    4.8972   -2.2455 C.2       1 <0>        -0.2194
     13 C13         4.7024    5.1953   -0.7726 C.3       1 <0>         0.3894
     14 O1          5.9044    5.9248   -0.5155 O.3       1 <0>        -0.2778
     15 C14         3.5184    6.0210   -0.3335 C.2       1 <0>        -0.1029
     16 C15         2.3935    5.4090    0.0421 C.2       1 <0>        -0.1175
     17 C16         2.3661    3.9340    0.0063 C.ar      1 <0>        -0.0990
     18 C17         1.1518    3.2148    0.0109 C.ar      1 <0>        -0.0120
     19 C18        -0.0885    3.8676    0.0259 C.ar      1 <0>        -0.1039
     20 C19        -1.2374    3.1356    0.0320 C.ar      1 <0>        -0.1149
     21 C20        -1.1991    1.7432    0.0172 C.ar      1 <0>        -0.1265
     22 C21        -0.0126    1.0758    0.0080 C.ar      1 <0>        -0.1001
     23 C22         1.1930    1.7977    0.0003 C.ar      1 <0>        -0.0712
     24 C23         2.4354    1.1385   -0.0180 C.ar      1 <0>        -0.0861
     25 C24         3.5948    1.8526   -0.0300 C.ar      1 <0>        -0.1168
     26 C25         3.5772    3.2459   -0.0218 C.ar      1 <0>         0.1308
     27 O2          4.7318    3.9634   -0.0447 O.3       1 <0>        -0.2883
     28 C26         3.6052    7.5254   -0.3197 C.3       1 <0>        -0.1422
     29 C27         4.2186    7.9813    0.9792 C.2       1 <0>         0.4725
     30 O3          4.5511    7.1679    1.8085 O.co2     1 <0>        -0.6202
     31 H1          6.6869   11.1490   -5.6937 H         1 <0>         0.1195
     32 H2          5.5766    9.1680   -6.6332 H         1 <0>         0.1193
     33 H3          5.1246    7.2157   -5.2464 H         1 <0>         0.1231
     34 H4          7.3653   11.2077   -3.3550 H         1 <0>         0.1270
     35 H5          7.5067   10.0917   -1.1574 H         1 <0>         0.1383
     36 H6          7.0808    8.1556    0.2494 H         1 <0>         0.1422
     37 H7          4.9957    5.5641   -4.1974 H         1 <0>         0.1376
     38 H8          4.0900    3.9938   -2.5769 H         1 <0>         0.1351
     39 H9          1.5309    5.9750    0.3615 H         1 <0>         0.1337
     40 H10        -0.1332    4.9466    0.0331 H         1 <0>         0.1283
     41 H11        -2.1913    3.6420    0.0437 H         1 <0>         0.1218
     42 H12        -2.1237    1.1851    0.0179 H         1 <0>         0.1202
     43 H13         0.0021   -0.0041    0.0020 H         1 <0>         0.1252
     44 H14         2.4700    0.0590   -0.0221 H         1 <0>         0.1348
     45 H15         4.5409    1.3320   -0.0463 H         1 <0>         0.1356
     46 H16         4.2243    7.8613   -1.1515 H         1 <0>         0.0832
     47 H17         2.6052    7.9480   -0.4173 H         1 <0>         0.0769
     48 O4          4.3955    9.2908    1.2148 O.co2     1 <0>        -0.7652
@<TRIPOS>BOND
     1    1    6 ar
     2    1    2 ar
     3    1   31 1
     4    2    3 ar
     5    2   32 1
     6    3    4 ar
     7    3   33 1
     8    4   10 ar
     9    4    5 ar
    10    5    6 ar
    11    5    7 ar
    12    6   34 1
    13    7    8 ar
    14    7   35 1
    15    8    9 ar
    16    8   36 1
    17    9   14 1
    18    9   10 ar
    19   10   11 1
    20   11   12 2
    21   11   37 1
    22   12   13 1
    23   12   38 1
    24   13   27 1
    25   13   14 1
    26   13   15 1
    27   15   16 2
    28   15   28 1
    29   16   17 1
    30   16   39 1
    31   17   26 ar
    32   17   18 ar
    33   18   23 ar
    34   18   19 ar
    35   19   20 ar
    36   19   40 1
    37   20   21 ar
    38   20   41 1
    39   21   22 ar
    40   21   42 1
    41   22   23 ar
    42   22   43 1
    43   23   24 ar
    44   24   25 ar
    45   24   44 1
    46   25   26 ar
    47   25   45 1
    48   26   27 1
    49   28   29 1
    50   28   46 1
    51   28   47 1
    52   29   30 2
    53   29   48 1
@<TRIPOS>MOLECULE
ZINC32919392
   41    43     0     0     0
SMALL
USER_CHARGES
4-[3,5-bis(trifluoromethyl)phenyl]-5-[(2-methylphenoxy)methyl]-1,2,4-triazole-3-thiol
@<TRIPOS>ATOM
      1 C1          2.5001    6.1026   -0.7504 C.3       1 <0>        -0.1063
      2 C2          3.3173    5.7194    0.4564 C.ar      1 <0>        -0.1135
      3 C3          4.6736    5.4889    0.3283 C.ar      1 <0>        -0.0837
      4 C4          5.4238    5.1377    1.4351 C.ar      1 <0>        -0.1579
      5 C5          4.8194    5.0168    2.6730 C.ar      1 <0>        -0.0859
      6 C6          3.4649    5.2514    2.8073 C.ar      1 <0>        -0.2062
      7 C7          2.7086    5.5983    1.6969 C.ar      1 <0>         0.1346
      8 O1          1.3748    5.8246    1.8255 O.3       1 <0>        -0.3049
      9 C8          0.8156    5.6815    3.1328 C.3       1 <0>         0.1620
     10 C9         -0.6628    5.9691    3.0810 C.2       1 <0>         0.1138
     11 N1         -1.2300    7.1306    3.2462 N.2       1 <0>        -0.2521
     12 N2         -2.5058    7.0196    3.1381 N.2       1 <0>        -0.3332
     13 C10        -2.8267    5.7708    2.8907 C.2       1 <0>         0.3869
     14 N3         -1.6597    5.0582    2.8515 N.pl3     1 <0>        -0.4567
     15 C11        -1.5139    3.6828    2.6187 C.ar      1 <0>         0.1573
     16 C12        -2.0191    2.7658    3.5302 C.ar      1 <0>        -0.0031
     17 C13        -1.8740    1.4119    3.2983 C.ar      1 <0>        -0.1775
     18 C14        -1.2266    0.9697    2.1593 C.ar      1 <0>        -0.0248
     19 C15        -0.7223    1.8808    1.2496 C.ar      1 <0>        -0.1797
     20 C16        -0.8594    3.2359    1.4790 C.ar      1 <0>        -0.0258
     21 C17        -0.0169    1.3948    0.0097 C.3       1 <0>         0.5160
     22 F1          0.0021   -0.0041    0.0020 F         1 <0>        -0.1742
     23 F2          1.2956    1.8790   -0.0002 F         1 <0>        -0.1705
     24 F3         -0.6935    1.8582   -1.1237 F         1 <0>        -0.1699
     25 C18        -2.4222    0.4158    4.2874 C.3       1 <0>         0.5163
     26 F4         -2.1556   -0.8821    3.8384 F         1 <0>        -0.1751
     27 F5         -1.8152    0.6125    5.5324 F         1 <0>        -0.1736
     28 F6         -3.8046    0.5923    4.4094 F         1 <0>        -0.1647
     29 S1         -4.4526    5.1330    2.6569 S.3       1 <0>        -0.7730
     30 H1          3.1520    6.1480   -1.6352 H         1 <0>         0.0628
     31 H2          2.0393    7.0873   -0.5835 H         1 <0>         0.0709
     32 H3          1.7126    5.3520   -0.9132 H         1 <0>         0.0676
     33 H4          5.1480    5.5834   -0.6373 H         1 <0>         0.1264
     34 H5          6.4839    4.9579    1.3329 H         1 <0>         0.1209
     35 H6          5.4077    4.7427    3.5362 H         1 <0>         0.1224
     36 H7          2.9941    5.1612    3.7752 H         1 <0>         0.1277
     37 H8          0.9769    4.6537    3.4902 H         1 <0>         0.0730
     38 H9          1.3029    6.3892    3.8196 H         1 <0>         0.0960
     39 H10        -2.5248    3.1107    4.4200 H         1 <0>         0.1512
     40 H11        -1.1143   -0.0894    1.9801 H         1 <0>         0.1577
     41 H12        -0.4617    3.9471    0.7701 H         1 <0>         0.1488
@<TRIPOS>BOND
     1    1    2 1
     2    1   30 1
     3    1   31 1
     4    1   32 1
     5    2    7 ar
     6    2    3 ar
     7    3    4 ar
     8    3   33 1
     9    4    5 ar
    10    4   34 1
    11    5    6 ar
    12    5   35 1
    13    6    7 ar
    14    6   36 1
    15    7    8 1
    16    8    9 1
    17    9   37 1
    18    9   38 1
    19    9   10 1
    20   10   14 1
    21   10   11 2
    22   11   12 1
    23   12   13 2
    24   13   29 1
    25   13   14 1
    26   14   15 1
    27   15   20 ar
    28   15   16 ar
    29   16   17 ar
    30   16   39 1
    31   17   18 ar
    32   17   25 1
    33   18   19 ar
    34   18   40 1
    35   19   20 ar
    36   19   21 1
    37   20   41 1
    38   21   22 1
    39   21   23 1
    40   21   24 1
    41   25   26 1
    42   25   27 1
    43   25   28 1
@<TRIPOS>MOLECULE
ZINC02054395
   46    50     0     0     0
SMALL
USER_CHARGES

@<TRIPOS>ATOM
      1 C1         -0.7959    1.5277   -0.3056 C.3       1 <0>        -0.1227
      2 C2         -0.7037    0.0236   -0.3068 C.ar      1 <0>        -0.0708
      3 C3         -1.0095   -0.6868   -1.4528 C.ar      1 <0>        -0.1196
      4 C4         -0.9249   -2.0663   -1.4540 C.ar      1 <0>        -0.1197
      5 C5         -0.5341   -2.7359   -0.3092 C.ar      1 <0>        -0.1262
      6 C6         -0.2276   -2.0257    0.8362 C.ar      1 <0>        -0.1005
      7 C7         -0.3081   -0.6455    0.8360 C.ar      1 <0>        -0.0698
      8 C8          0.0312    0.1292    2.0834 C.3       1 <0>         0.0491
      9 H1         -0.1595    1.1888    1.9131 H         1 <0>         0.1203
     10 C9          1.4870   -0.0685    2.4123 C.ar      1 <0>        -0.1025
     11 C10         2.4448    0.6137    1.6828 C.ar      1 <0>        -0.0755
     12 C11         3.7862    0.4469    1.9684 C.ar      1 <0>        -0.1387
     13 C12         4.1765   -0.4042    2.9862 C.ar      1 <0>        -0.0959
     14 C13         3.2259   -1.0875    3.7169 C.ar      1 <0>        -0.1333
     15 C14         1.8748   -0.9222    3.4319 C.ar      1 <0>         0.1150
     16 O1          0.9583   -1.6028    4.1627 O.3       1 <0>        -0.2312
     17 C15        -0.3219   -1.1874    4.1905 C.2       1 <0>         0.1745
     18 C16        -0.8269   -0.3547    3.2184 C.2       1 <0>        -0.1304
     19 C17        -2.1581    0.0463    3.2905 C.2       1 <0>         0.0132
     20 C18        -2.4704    1.3850    3.4911 C.2       1 <0>        -0.1431
     21 C19        -1.6178    2.4808    3.7606 C.2       1 <0>         0.4714
     22 O2         -0.2781    2.3067    3.8574 O.3       1 <0>        -0.5534
     23 N1         -2.1469    3.6592    3.9131 N.2       1 <0>        -0.6178
     24 C20        -3.4701    3.8525    3.8208 C.2       1 <0>         0.3891
     25 S1         -4.0613    2.2019    3.4726 S.3       1 <0>        -0.1661
     26 S2         -4.3617    5.3045    3.9868 S.2       1 <0>        -0.5275
     27 C21        -1.1678   -1.6188    5.2440 C.2       1 <0>        -0.1667
     28 C22        -0.8484   -2.3562    6.3785 C.2       1 <0>        -0.1189
     29 C23        -1.8945   -2.6236    7.2284 C.2       1 <0>        -0.1718
     30 C24        -3.1322   -2.1655    6.9157 C.2       1 <0>        -0.2690
     31 S3         -2.9165   -1.3503    5.4628 S.3       1 <0>         0.2463
     32 H2          0.1897    1.9523   -0.4959 H         1 <0>         0.0713
     33 H3         -1.4870    1.8500   -1.0844 H         1 <0>         0.0682
     34 H4         -1.1573    1.8688    0.6646 H         1 <0>         0.0713
     35 H5         -1.3147   -0.1638   -2.3471 H         1 <0>         0.1209
     36 H6         -1.1644   -2.6213   -2.3490 H         1 <0>         0.1187
     37 H7         -0.4687   -3.8139   -0.3099 H         1 <0>         0.1184
     38 H8          0.0774   -2.5488    1.7305 H         1 <0>         0.1166
     39 H9          2.1427    1.2786    0.8872 H         1 <0>         0.1245
     40 H10         4.5304    0.9812    1.3964 H         1 <0>         0.1250
     41 H11         5.2253   -0.5343    3.2090 H         1 <0>         0.1293
     42 H12         3.5319   -1.7523    4.5111 H         1 <0>         0.1309
     43 H13        -2.9480   -0.6834    3.1904 H         1 <0>         0.1410
     44 H14         0.1567   -2.6970    6.5786 H         1 <0>         0.1429
     45 H15        -1.7333   -3.1912    8.1329 H         1 <0>         0.1298
     46 H16        -4.0471   -2.2921    7.4755 H         1 <0>         0.1835
@<TRIPOS>BOND
     1    1    2 1
     2    1   32 1
     3    1   33 1
     4    1   34 1
     5    2    7 ar
     6    2    3 ar
     7    3    4 ar
     8    3   35 1
     9    4    5 ar
    10    4   36 1
    11    5    6 ar
    12    5   37 1
    13    6    7 ar
    14    6   38 1
    15    7    8 1
    16    8    9 1
    17    8   18 1
    18    8   10 1
    19   10   15 ar
    20   10   11 ar
    21   11   12 ar
    22   11   39 1
    23   12   13 ar
    24   12   40 1
    25   13   14 ar
    26   13   41 1
    27   14   15 ar
    28   14   42 1
    29   15   16 1
    30   16   17 1
    31   17   18 2
    32   17   27 1
    33   18   19 1
    34   19   20 2
    35   19   43 1
    36   20   25 1
    37   20   21 1
    38   21   22 1
    39   21   23 2
    40   23   24 1
    41   24   25 1
    42   24   26 2
    43   27   31 1
    44   27   28 2
    45   28   29 1
    46   28   44 1
    47   29   30 2
    48   29   45 1
    49   30   31 1
    50   30   46 1
@<TRIPOS>MOLECULE
ZINC01948626
   40    42     0     0     0
SMALL
USER_CHARGES

@<TRIPOS>ATOM
      1 C1          0.6961    1.7807   -0.0901 C.ar      1 <0>        -0.1105
      2 C2          1.9899    2.2504   -0.2211 C.ar      1 <0>        -0.1088
      3 C3          3.0470    1.3615   -0.2634 C.ar      1 <0>        -0.1075
      4 C4          2.8106    0.0010   -0.1741 C.ar      1 <0>        -0.0304
      5 C5          1.5161   -0.4683   -0.0427 C.ar      1 <0>        -0.0714
      6 C6          0.4593    0.4219   -0.0010 C.ar      1 <0>        -0.1018
      7 C7          1.2577   -1.9499    0.0541 C.3       1 <0>        -0.0441
      8 C8          1.4103   -2.3939    1.4861 C.ar      1 <0>        -0.0902
      9 C9          2.6415   -2.8055    1.9490 C.ar      1 <0>        -0.0512
     10 C10         2.7845   -3.2178    3.2775 C.ar      1 <0>        -0.0990
     11 C11         1.6699   -3.2088    4.1298 C.ar      1 <0>         0.1853
     12 C12         0.4394   -2.7915    3.6464 C.ar      1 <0>        -0.1302
     13 C13         0.3139   -2.3812    2.3321 C.ar      1 <0>        -0.0487
     14 Br1        -1.0678   -2.7763    4.7883 Br        1 <0>        -0.0305
     15 O1          1.7957   -3.6071    5.4213 O.3       1 <0>        -0.4564
     16 C14         4.0950   -3.6587    3.7783 C.2       1 <0>         0.1927
     17 N1          4.2239   -4.0423    5.0175 N.2       1 <0>        -0.4378
     18 C15         5.4614   -4.3500    5.5131 C.ar      1 <0>         0.0524
     19 C16         6.5367   -3.4848    5.3030 C.ar      1 <0>        -0.1352
     20 C17         7.7819   -3.8009    5.8054 C.ar      1 <0>        -0.1128
     21 C18         7.9700   -4.9730    6.5173 C.ar      1 <0>        -0.1099
     22 C19         6.9129   -5.8378    6.7319 C.ar      1 <0>        -0.1332
     23 C20         5.6552   -5.5327    6.2393 C.ar      1 <0>         0.1199
     24 O2          4.6145   -6.3790    6.4549 O.3       1 <0>        -0.4807
     25 Cl1         4.1381   -1.1164   -0.2278 Cl        1 <0>        -0.0677
     26 H1         -0.1295    2.4761   -0.0529 H         1 <0>         0.1308
     27 H2          2.1743    3.3123   -0.2907 H         1 <0>         0.1327
     28 H3          4.0575    1.7285   -0.3664 H         1 <0>         0.1341
     29 H4         -0.5515    0.0556    0.1013 H         1 <0>         0.1329
     30 H5          0.2451   -2.1651   -0.2871 H         1 <0>         0.0932
     31 H6          1.9730   -2.4850   -0.5704 H         1 <0>         0.0939
     32 H7          3.4945   -2.8099    1.2866 H         1 <0>         0.1399
     33 H8         -0.6459   -2.0525    1.9618 H         1 <0>         0.1387
     34 H9          2.0205   -2.8928    6.0331 H         1 <0>         0.3946
     35 H10         4.9507   -3.6647    3.1194 H         1 <0>         0.1106
     36 H11         6.3939   -2.5695    4.7478 H         1 <0>         0.1263
     37 H12         8.6134   -3.1313    5.6423 H         1 <0>         0.1288
     38 H13         8.9482   -5.2134    6.9070 H         1 <0>         0.1300
     39 H14         7.0673   -6.7505    7.2883 H         1 <0>         0.1344
     40 H15         4.5062   -7.0519    5.7689 H         1 <0>         0.3867
@<TRIPOS>BOND
     1    1    6 ar
     2    1    2 ar
     3    1   26 1
     4    2    3 ar
     5    2   27 1
     6    3    4 ar
     7    3   28 1
     8    4    5 ar
     9    4   25 1
    10    5    6 ar
    11    5    7 1
    12    6   29 1
    13    7    8 1
    14    7   30 1
    15    7   31 1
    16    8   13 ar
    17    8    9 ar
    18    9   10 ar
    19    9   32 1
    20   10   11 ar
    21   10   16 1
    22   11   12 ar
    23   11   15 1
    24   12   13 ar
    25   12   14 1
    26   13   33 1
    27   15   34 1
    28   16   17 2
    29   16   35 1
    30   17   18 1
    31   18   23 ar
    32   18   19 ar
    33   19   20 ar
    34   19   36 1
    35   20   21 ar
    36   20   37 1
    37   21   22 ar
    38   21   38 1
    39   22   23 ar
    40   22   39 1
    41   23   24 1
    42   24   40 1
@<TRIPOS>MOLECULE
ZINC58902764
   26    27     0     0     0
SMALL
USER_CHARGES

@<TRIPOS>ATOM
      1 C1          0.0102    1.4286    0.0312 C.ar      1 <0>        -0.0636
      2 C2          1.2042    2.1246    0.0141 C.ar      1 <0>        -0.1290
      3 C3          2.4049    1.4379   -0.0059 C.ar      1 <0>         0.0605
      4 C4          2.4105    0.0541   -0.0087 C.ar      1 <0>        -0.6043
      5 C5          1.2168   -0.6417    0.0084 C.ar      1 <0>        -0.0090
      6 C6          0.0158    0.0453    0.0283 C.ar      1 <0>        -0.0606
      7 Cl1        -1.4839   -0.8288    0.0503 Cl        1 <0>        -0.0679
      8 S1          3.9398   -0.8206   -0.0348 S.o2      1 <0>         2.6103
      9 O1          4.7533   -0.2466    0.9791 O.2       1 <0>        -1.0090
     10 O2          3.6160   -2.2040   -0.0595 O.2       1 <0>        -1.0038
     11 N1          4.6739   -0.4805   -1.4797 N.2       1 <0>        -1.1031
     12 C7          5.9692   -0.9446   -1.7326 C.ar      1 <0>         0.2850
     13 C8          6.2111   -2.3085   -1.8413 C.ar      1 <0>        -0.1164
     14 C9          7.4919   -2.7640   -2.0917 C.ar      1 <0>        -0.0754
     15 C10         8.5327   -1.8633   -2.2336 C.ar      1 <0>        -0.0860
     16 C11         8.2950   -0.5044   -2.1258 C.ar      1 <0>        -0.0801
     17 C12         7.0153   -0.0424   -1.8812 C.ar      1 <0>        -0.0563
     18 Cl2         6.7168    1.6629   -1.7534 Cl        1 <0>        -0.0630
     19 Cl3        10.1401   -2.4393   -2.5469 Cl        1 <0>        -0.0885
     20 Cl4         4.9061   -3.4394   -1.6624 Cl        1 <0>        -0.0281
     21 Cl5         3.9046    2.3120   -0.0280 Cl        1 <0>        -0.0164
     22 H1         -0.9271    1.9648    0.0514 H         1 <0>         0.1428
     23 H2          1.1999    3.2046    0.0160 H         1 <0>         0.1451
     24 H3          1.2212   -1.7217    0.0058 H         1 <0>         0.1564
     25 H4          7.6805   -3.8241   -2.1764 H         1 <0>         0.1297
     26 H5          9.1094    0.1962   -2.2367 H         1 <0>         0.1309
@<TRIPOS>BOND
     1    1    6 ar
     2    1    2 ar
     3    1   22 1
     4    2    3 ar
     5    2   23 1
     6    3    4 ar
     7    3   21 1
     8    4    5 ar
     9    4    8 1
    10    5    6 ar
    11    5   24 1
    12    6    7 1
    13    8    9 2
    14    8   10 2
    15    8   11 1
    16   11   12 1
    17   12   17 ar
    18   12   13 ar
    19   13   14 ar
    20   13   20 1
    21   14   15 ar
    22   14   25 1
    23   15   16 ar
    24   15   19 1
    25   16   17 ar
    26   16   26 1
    27   17   18 1
@<TRIPOS>MOLECULE
ZINC13284548
   46    48     0     0     0
SMALL
USER_CHARGES

@<TRIPOS>ATOM
      1 C1         -0.0187    1.5258    0.0104 C.3       1 <0>        -0.1554
      2 C2          0.0021   -0.0041    0.0020 C.3       1 <0>        -0.1174
      3 C3         -1.4333   -0.5336    0.0129 C.3       1 <0>        -0.1059
      4 C4         -1.4126   -2.0635    0.0045 C.3       1 <0>        -0.1248
      5 S1         -3.1144   -2.6914    0.0173 S.3       1 <0>        -0.0564
      6 C5         -2.9226   -4.4429    0.0061 C.2       1 <0>         0.1717
      7 C6         -4.0201   -5.2461    0.0067 C.2       1 <0>        -0.1001
      8 C7         -3.8858   -6.7403   -0.0116 C.3       1 <0>         0.0809
      9 H1         -4.6133   -7.1730    0.6750 H         1 <0>         0.1095
     10 C8         -2.5002   -7.1672    0.4026 C.2       1 <0>        -0.2639
     11 C9         -1.4701   -6.2947    0.3821 C.2       1 <0>         0.2195
     12 N1         -1.6631   -4.9957   -0.0089 N.pl3     1 <0>        -0.6386
     13 C10        -0.0791   -6.7258    0.7776 C.3       1 <0>        -0.0974
     14 C11        -0.1642   -7.8303    1.8332 C.3       1 <0>        -0.1106
     15 C12        -0.9645   -8.9994    1.2496 C.3       1 <0>        -0.1676
     16 C13        -2.3136   -8.4990    0.8117 C.2       1 <0>         0.3967
     17 O1         -3.2605   -9.2606    0.8120 O.2       1 <0>        -0.4510
     18 C14        -4.1610   -7.2442   -1.4050 C.ar      1 <0>        -0.0545
     19 C15        -3.3722   -6.8248   -2.4601 C.ar      1 <0>        -0.0910
     20 C16        -3.6239   -7.2864   -3.7384 C.ar      1 <0>        -0.1051
     21 C17        -4.6651   -8.1677   -3.9634 C.ar      1 <0>        -0.1000
     22 C18        -5.4552   -8.5883   -2.9091 C.ar      1 <0>        -0.0316
     23 C19        -5.1991   -8.1306   -1.6273 C.ar      1 <0>        -0.0135
     24 Cl1        -6.1850   -8.6635   -0.3016 Cl        1 <0>        -0.0329
     25 Cl2        -6.7627   -9.6949   -3.1911 Cl        1 <0>        -0.0476
     26 C20        -5.3248   -4.6562    0.0245 C.1       1 <0>         0.2541
     27 N2         -6.3599   -4.1882    0.0387 N.1       1 <0>        -0.3999
     28 H2          1.0039    1.9031    0.0027 H         1 <0>         0.0589
     29 H3         -0.5459    1.8868   -0.8726 H         1 <0>         0.0569
     30 H4         -0.5289    1.8773    0.9072 H         1 <0>         0.0568
     31 H5          0.5123   -0.3556   -0.8948 H         1 <0>         0.0657
     32 H6          0.5293   -0.3651    0.8851 H         1 <0>         0.0657
     33 H7         -1.9435   -0.1821    0.9097 H         1 <0>         0.0778
     34 H8         -1.9605   -0.1726   -0.8702 H         1 <0>         0.0779
     35 H9         -0.9024   -2.4150   -0.8923 H         1 <0>         0.0926
     36 H10        -0.8854   -2.4246    0.8875 H         1 <0>         0.0952
     37 H11        -0.9065   -4.4604   -0.2949 H         1 <0>         0.4182
     38 H12         0.4475   -7.1020   -0.0996 H         1 <0>         0.1024
     39 H13         0.4624   -5.8731    1.1874 H         1 <0>         0.0913
     40 H14         0.8395   -8.1670    2.0929 H         1 <0>         0.0888
     41 H15        -0.6674   -7.4495    2.7220 H         1 <0>         0.0766
     42 H16        -0.4332   -9.4132    0.3925 H         1 <0>         0.1011
     43 H17        -1.0905   -9.7706    2.0096 H         1 <0>         0.0993
     44 H18        -2.5591   -6.1358   -2.2855 H         1 <0>         0.1278
     45 H19        -3.0072   -6.9582   -4.5619 H         1 <0>         0.1377
     46 H20        -4.8617   -8.5274   -4.9626 H         1 <0>         0.1422
@<TRIPOS>BOND
     1    1    2 1
     2    1   28 1
     3    1   29 1
     4    1   30 1
     5    2    3 1
     6    2   31 1
     7    2   32 1
     8    3    4 1
     9    3   33 1
    10    3   34 1
    11    4    5 1
    12    4   35 1
    13    4   36 1
    14    5    6 1
    15    6   12 1
    16    6    7 2
    17    7    8 1
    18    7   26 1
    19    8    9 1
    20    8   10 1
    21    8   18 1
    22   10   16 1
    23   10   11 2
    24   11   12 1
    25   11   13 1
    26   12   37 1
    27   13   14 1
    28   13   38 1
    29   13   39 1
    30   14   15 1
    31   14   40 1
    32   14   41 1
    33   15   16 1
    34   15   42 1
    35   15   43 1
    36   16   17 2
    37   18   23 ar
    38   18   19 ar
    39   19   20 ar
    40   19   44 1
    41   20   21 ar
    42   20   45 1
    43   21   22 ar
    44   21   46 1
    45   22   23 ar
    46   22   25 1
    47   23   24 1
    48   26   27 3
@<TRIPOS>MOLECULE
ZINC02385782
   52    55     0     0     0
SMALL
USER_CHARGES
4-(2-chlorophenyl)-3-(9H-fluoren-9-ylmethoxycarbonylamino)butanoic acid
@<TRIPOS>ATOM
      1 C1         -3.3913    3.5641    6.1574 C.ar      1 <0>        -0.1130
      2 C2         -2.9757    2.6706    5.1875 C.ar      1 <0>        -0.1180
      3 C3         -3.3794    2.8365    3.8763 C.ar      1 <0>        -0.1100
      4 C4         -4.2039    3.8941    3.5351 C.ar      1 <0>        -0.0253
      5 C5         -4.6151    4.7907    4.5049 C.ar      1 <0>        -0.0587
      6 C6         -4.2110    4.6234    5.8163 C.ar      1 <0>        -0.1014
      7 C7         -5.5084    5.9460    4.1331 C.3       1 <0>        -0.1042
      8 C8         -4.6494    7.1379    3.7059 C.3       1 <0>         0.1847
      9 H1         -3.9314    7.3689    4.4928 H         1 <0>         0.1052
     10 C9         -5.5474    8.3524    3.4622 C.3       1 <0>        -0.1721
     11 C10        -4.6924    9.5596    3.1742 C.2       1 <0>         0.4580
     12 O1         -3.4919    9.4457    3.0995 O.co2     1 <0>        -0.6201
     13 N1         -3.9320    6.8057    2.4725 N.am      1 <0>        -0.6800
     14 C11        -2.5949    6.6378    2.4949 C.2       1 <0>         0.6655
     15 O2         -1.9729    6.8509    3.5168 O.2       1 <0>        -0.5647
     16 O3         -1.9484    6.2339    1.3852 O.3       1 <0>        -0.3727
     17 C12        -0.5085    6.0741    1.4824 C.3       1 <0>         0.1125
     18 C13         0.0457    5.6132    0.1329 C.3       1 <0>        -0.0117
     19 C14        -0.4118    4.2060   -0.1635 C.ar      1 <0>        -0.0752
     20 C15        -1.6654    3.6543   -0.3220 C.ar      1 <0>        -0.0807
     21 C16        -1.7985    2.3052   -0.5992 C.ar      1 <0>        -0.1130
     22 C17        -0.6752    1.5055   -0.7082 C.ar      1 <0>        -0.1209
     23 C18         0.5829    2.0491   -0.5516 C.ar      1 <0>        -0.0997
     24 C19         0.7250    3.4104   -0.2766 C.ar      1 <0>        -0.0603
     25 C20         1.9344    4.2437   -0.0646 C.ar      1 <0>        -0.0494
     26 C21         1.5531    5.5600    0.1811 C.ar      1 <0>        -0.0819
     27 C22         2.5067    6.5292    0.4096 C.ar      1 <0>        -0.0935
     28 C23         3.8497    6.1965    0.3957 C.ar      1 <0>        -0.1134
     29 C24         4.2384    4.8914    0.1526 C.ar      1 <0>        -0.1180
     30 C25         3.2911    3.9152   -0.0767 C.ar      1 <0>        -0.0993
     31 Cl1        -4.7173    4.0990    1.8894 Cl        1 <0>        -0.0682
     32 H2         -3.0755    3.4341    7.1820 H         1 <0>         0.1247
     33 H3         -2.3358    1.8427    5.4548 H         1 <0>         0.1252
     34 H4         -3.0545    2.1387    3.1188 H         1 <0>         0.1268
     35 H5         -4.5355    5.3209    6.5744 H         1 <0>         0.1304
     36 H6         -6.1168    6.2263    4.9929 H         1 <0>         0.0890
     37 H7         -6.1580    5.6523    3.3086 H         1 <0>         0.0815
     38 H8         -6.1992    8.1573    2.6106 H         1 <0>         0.0683
     39 H9         -6.1537    8.5397    4.3485 H         1 <0>         0.0788
     40 H10        -4.4193    6.7065    1.6397 H         1 <0>         0.3950
     41 H11        -0.2762    5.3297    2.2440 H         1 <0>         0.0683
     42 H12        -0.0548    7.0269    1.7552 H         1 <0>         0.0760
     43 H13        -0.2809    6.2884   -0.6580 H         1 <0>         0.1140
     44 H14        -2.5439    4.2762   -0.2332 H         1 <0>         0.1296
     45 H15        -2.7810    1.8753   -0.7268 H         1 <0>         0.1248
     46 H16        -0.7834    0.4523   -0.9212 H         1 <0>         0.1233
     47 H17         1.4575    1.4218   -0.6412 H         1 <0>         0.1196
     48 H18         2.2052    7.5486    0.6000 H         1 <0>         0.1291
     49 H19         4.5956    6.9568    0.5745 H         1 <0>         0.1281
     50 H20         5.2877    4.6356    0.1429 H         1 <0>         0.1254
     51 H21         3.5989    2.8974   -0.2658 H         1 <0>         0.1218
     52 O4         -5.2647   10.7613    3.0007 O.co2     1 <0>        -0.7799
@<TRIPOS>BOND
     1    1    6 ar
     2    1    2 ar
     3    1   32 1
     4    2    3 ar
     5    2   33 1
     6    3    4 ar
     7    3   34 1
     8    4    5 ar
     9    4   31 1
    10    5    6 ar
    11    5    7 1
    12    6   35 1
    13    7    8 1
    14    7   36 1
    15    7   37 1
    16    8    9 1
    17    8   10 1
    18    8   13 1
    19   10   11 1
    20   10   38 1
    21   10   39 1
    22   11   12 2
    23   11   52 1
    24   13   14 am
    25   13   40 1
    26   14   15 2
    27   14   16 1
    28   16   17 1
    29   17   18 1
    30   17   41 1
    31   17   42 1
    32   18   26 1
    33   18   19 1
    34   18   43 1
    35   19   24 ar
    36   19   20 ar
    37   20   21 ar
    38   20   44 1
    39   21   22 ar
    40   21   45 1
    41   22   23 ar
    42   22   46 1
    43   23   24 ar
    44   23   47 1
    45   24   25 1
    46   25   30 ar
    47   25   26 ar
    48   26   27 ar
    49   27   28 ar
    50   27   48 1
    51   28   29 ar
    52   28   49 1
    53   29   30 ar
    54   29   50 1
    55   30   51 1
@<TRIPOS>MOLECULE
ZINC25582601
   61    62     0     0     0
SMALL
USER_CHARGES
N-[(1R)-1-(4-tert-butylphenyl)-2-methyl-propyl]-3-[2-(difluoromethylsulfanyl)-4-methyl-6-oxo-1H-pyrimidin-5-yl]propanamide
@<TRIPOS>ATOM
      1 C1          0.6073    4.3473    8.3851 C.3       1 <0>        -0.1016
      2 C2         -0.7453    5.0005    8.2623 C.ar      1 <0>         0.1816
      3 C3         -1.3218    5.1474    7.0336 C.ar      1 <0>        -0.3365
      4 C4         -2.5817    5.7646    6.9432 C.ar      1 <0>         0.5039
      5 O1         -3.1231    5.9167    5.8604 O.3       1 <0>        -0.6116
      6 N1         -3.1834    6.1812    8.0779 N.ar      1 <0>        -0.6342
      7 C5         -2.5601    6.0079    9.2763 C.ar      1 <0>         0.3297
      8 N2         -1.3754    5.4326    9.3516 N.ar      1 <0>        -0.6090
      9 S1         -3.3497    6.5609   10.7512 S.3       1 <0>        -0.0096
     10 C6         -2.1032    6.0827   11.9733 C.3       1 <0>         0.2722
     11 F1         -1.9041    4.6990   11.9195 F         1 <0>        -0.1925
     12 F2         -0.8995    6.7382   11.6927 F         1 <0>        -0.1920
     13 C7         -0.6164    4.6614    5.7937 C.3       1 <0>        -0.0183
     14 C8         -1.1060    3.2539    5.4470 C.3       1 <0>        -0.1294
     15 C9         -0.4007    2.7679    4.2071 C.2       1 <0>         0.5203
     16 O2          0.4135    3.4774    3.6552 O.2       1 <0>        -0.5386
     17 N3         -0.6746    1.5449    3.7117 N.am      1 <0>        -0.7444
     18 C10         0.0111    1.0724    2.5063 C.3       1 <0>         0.1923
     19 H1          1.0405    1.4589    2.5373 H         1 <0>         0.0923
     20 C11         0.0316   -0.4344    2.4981 C.ar      1 <0>        -0.0832
     21 C12        -1.0779   -1.1431    2.9197 C.ar      1 <0>        -0.1117
     22 C13        -1.0609   -2.5253    2.9075 C.ar      1 <0>        -0.1165
     23 C14         0.0692   -3.1988    2.4832 C.ar      1 <0>        -0.0726
     24 C15         1.1807   -2.4902    2.0670 C.ar      1 <0>        -0.1126
     25 C16         1.1618   -1.1080    2.0742 C.ar      1 <0>        -0.1052
     26 C17         0.0896   -4.7057    2.4749 C.3       1 <0>        -0.0291
     27 C18         1.2102   -5.2056    3.3888 C.3       1 <0>        -0.1403
     28 C19        -1.2541   -5.2367    2.9782 C.3       1 <0>        -0.1464
     29 C20         0.3335   -5.2045    1.0492 C.3       1 <0>        -0.1396
     30 C21        -0.7288    1.5792    1.2668 C.3       1 <0>        -0.0964
     31 C22        -0.0127    1.0858    0.0080 C.3       1 <0>        -0.1456
     32 C23        -0.7496    3.1091    1.2752 C.3       1 <0>        -0.1414
     33 H2          0.9671    4.0586    7.3865 H         1 <0>         0.0717
     34 H3          0.5258    3.4517    9.0186 H         1 <0>         0.0639
     35 H4          1.3162    5.0548    8.8399 H         1 <0>         0.0642
     36 H5         -2.2117    6.2563   13.0541 H         1 <0>         0.1381
     37 H6         -0.8344    5.3418    4.9573 H         1 <0>         0.0676
     38 H7          0.4684    4.6382    5.9743 H         1 <0>         0.0613
     39 H8         -0.8880    2.5735    6.2834 H         1 <0>         0.0828
     40 H9         -2.1908    3.2771    5.2665 H         1 <0>         0.0925
     41 H10        -1.4130    0.9014    4.2124 H         1 <0>         0.4145
     42 H11        -1.9594   -0.6168    3.2551 H         1 <0>         0.1214
     43 H12        -1.9292   -3.0789    3.2331 H         1 <0>         0.1261
     44 H13         2.0638   -3.0165    1.7358 H         1 <0>         0.1196
     45 H14         2.0303   -0.5544    1.7490 H         1 <0>         0.1213
     46 H15         1.2251   -6.3055    3.3827 H         1 <0>         0.0576
     47 H16         1.0349   -4.8469    4.4138 H         1 <0>         0.0574
     48 H17         2.1763   -4.8238    3.0269 H         1 <0>         0.0569
     49 H18        -1.2392   -6.3366    2.9721 H         1 <0>         0.0574
     50 H19        -2.0597   -4.8773    2.3211 H         1 <0>         0.0591
     51 H20        -1.4294   -4.8780    4.0032 H         1 <0>         0.0599
     52 H21         0.3484   -6.3044    1.0431 H         1 <0>         0.0575
     53 H22         1.2996   -4.8227    0.6874 H         1 <0>         0.0569
     54 H23        -0.4721   -4.8450    0.3921 H         1 <0>         0.0565
     55 H24        -1.7607    1.1983    1.2746 H         1 <0>         0.0691
     56 H25        -0.5447    1.4502   -0.8831 H         1 <0>         0.0547
     57 H26         0.0022   -0.0141    0.0020 H         1 <0>         0.0560
     58 H27         1.0193    1.4665    0.0002 H         1 <0>         0.0549
     59 H28        -1.2816    3.4734    0.3840 H         1 <0>         0.0444
     60 H29         0.2824    3.4899    1.2674 H         1 <0>         0.0627
     61 H30        -1.2645    3.4638    2.1802 H         1 <0>         0.0598
@<TRIPOS>BOND
     1    1    2 1
     2    1   33 1
     3    1   34 1
     4    1   35 1
     5    2    8 ar
     6    2    3 ar
     7    3    4 ar
     8    3   13 1
     9    4    5 1
    10    4    6 ar
    11    6    7 ar
    12    7    8 ar
    13    7    9 1
    14    9   10 1
    15   10   11 1
    16   10   12 1
    17   10   36 1
    18   13   14 1
    19   13   37 1
    20   13   38 1
    21   14   15 1
    22   14   39 1
    23   14   40 1
    24   15   16 2
    25   15   17 am
    26   17   18 1
    27   17   41 1
    28   18   19 1
    29   18   20 1
    30   18   30 1
    31   20   25 ar
    32   20   21 ar
    33   21   22 ar
    34   21   42 1
    35   22   23 ar
    36   22   43 1
    37   23   24 ar
    38   23   26 1
    39   24   25 ar
    40   24   44 1
    41   25   45 1
    42   26   27 1
    43   26   28 1
    44   26   29 1
    45   27   46 1
    46   27   47 1
    47   27   48 1
    48   28   49 1
    49   28   50 1
    50   28   51 1
    51   29   52 1
    52   29   53 1
    53   29   54 1
    54   30   31 1
    55   30   32 1
    56   30   55 1
    57   31   56 1
    58   31   57 1
    59   31   58 1
    60   32   59 1
    61   32   60 1
    62   32   61 1
@<TRIPOS>MOLECULE
ZINC40030097
   54    57     0     0     0
SMALL
USER_CHARGES

@<TRIPOS>ATOM
      1 C1          3.3861   -1.2490   -1.1982 C.2       1 <0>        -0.1824
      2 C2          2.2166   -1.5919   -0.7178 C.2       1 <0>        -0.1602
      3 C3          1.0010   -0.7561   -1.0258 C.3       1 <0>         0.1620
      4 N1         -0.0365   -1.6032   -1.6194 N.am      1 <0>        -0.6097
      5 C4         -0.2129   -1.8780   -3.0502 C.3       1 <0>         0.2624
      6 H1         -0.4043   -0.9501   -3.5892 H         1 <0>         0.0732
      7 C5         -1.4069   -2.7975   -3.1586 C.2       1 <0>        -0.5026
      8 C6         -1.8508   -3.0116   -1.8978 C.2       1 <0>         0.2666
      9 C7         -0.9924   -2.2714   -0.9487 C.2       1 <0>         0.5109
     10 O1         -1.1313   -2.2653    0.2582 O.2       1 <0>        -0.5326
     11 O2         -2.9088   -3.7837   -1.5598 O.3       1 <0>        -0.6489
     12 C8         -1.9752   -3.3506   -4.3913 C.2       1 <0>         0.5024
     13 O3         -1.9601   -4.5521   -4.5825 O.2       1 <0>        -0.4676
     14 C9         -2.5670   -2.4485   -5.4025 C.ar      1 <0>        -0.0970
     15 C10        -2.6823   -1.0813   -5.1403 C.ar      1 <0>        -0.0991
     16 C11        -3.2349   -0.2428   -6.0859 C.ar      1 <0>        -0.0975
     17 C12        -3.6762   -0.7513   -7.2942 C.ar      1 <0>        -0.1932
     18 C13        -3.5657   -2.1088   -7.5639 C.ar      1 <0>         0.1108
     19 C14        -3.0070   -2.9589   -6.6245 C.ar      1 <0>        -0.1026
     20 O4         -4.0011   -2.6027   -8.7529 O.3       1 <0>        -0.3118
     21 C15        -4.5612   -1.6681   -9.6775 C.3       1 <0>         0.1017
     22 C16        -4.9851   -2.3924  -10.9292 C.ar      1 <0>        -0.0797
     23 C17        -4.8062   -3.7594  -11.0311 C.ar      1 <0>        -0.0839
     24 C18        -5.1951   -4.4238  -12.1790 C.ar      1 <0>        -0.1133
     25 C19        -5.7631   -3.7219  -13.2260 C.ar      1 <0>        -0.1086
     26 C20        -5.9424   -2.3553  -13.1254 C.ar      1 <0>        -0.1102
     27 C21        -5.5585   -1.6904  -11.9741 C.ar      1 <0>        -0.0313
     28 Cl1        -5.7895    0.0253  -11.8443 Cl        1 <0>        -0.0683
     29 C22         1.0152   -2.5540   -3.6032 C.ar      1 <0>        -0.0636
     30 C23         1.5844   -3.6153   -2.9245 C.ar      1 <0>        -0.0664
     31 C24         2.7108   -4.2357   -3.4312 C.ar      1 <0>        -0.1116
     32 C25         3.2686   -3.7943   -4.6179 C.ar      1 <0>        -0.0383
     33 C26         2.6984   -2.7321   -5.2966 C.ar      1 <0>        -0.1137
     34 C27         1.5688   -2.1161   -4.7918 C.ar      1 <0>        -0.1042
     35 Cl2         4.6836   -4.5727   -5.2547 Cl        1 <0>        -0.0877
     36 H2          4.2572   -1.8480   -0.9775 H         1 <0>         0.0945
     37 H3          3.4783   -0.3698   -1.8187 H         1 <0>         0.0940
     38 H4          2.1235   -2.4736   -0.1011 H         1 <0>         0.1077
     39 H5          0.6237   -0.3106   -0.1053 H         1 <0>         0.0872
     40 H6          1.2710    0.0332   -1.7274 H         1 <0>         0.0790
     41 H7         -2.3394   -0.6811   -4.1976 H         1 <0>         0.1366
     42 H8         -3.3236    0.8141   -5.8821 H         1 <0>         0.1260
     43 H9         -4.1086   -0.0900   -8.0304 H         1 <0>         0.1244
     44 H10        -2.9164   -4.0143   -6.8350 H         1 <0>         0.1372
     45 H11        -5.4278   -1.1852   -9.2260 H         1 <0>         0.0802
     46 H12        -3.8151   -0.9142   -9.9290 H         1 <0>         0.0800
     47 H13        -4.3623   -4.3082  -10.2137 H         1 <0>         0.1449
     48 H14        -5.0548   -5.4918  -12.2583 H         1 <0>         0.1319
     49 H15        -6.0663   -4.2416  -14.1229 H         1 <0>         0.1324
     50 H16        -6.3858   -1.8070  -13.9434 H         1 <0>         0.1349
     51 H17         1.1491   -3.9596   -1.9980 H         1 <0>         0.1242
     52 H18         3.1556   -5.0646   -2.9007 H         1 <0>         0.1261
     53 H19         3.1336   -2.3869   -6.2229 H         1 <0>         0.1267
     54 H20         1.1208   -1.2900   -5.3240 H         1 <0>         0.1277
@<TRIPOS>BOND
     1    1    2 2
     2    1   36 1
     3    1   37 1
     4    2    3 1
     5    2   38 1
     6    3    4 1
     7    3   39 1
     8    3   40 1
     9    4    9 am
    10    4    5 1
    11    5    6 1
    12    5    7 1
    13    5   29 1
    14    7    8 2
    15    7   12 1
    16    8    9 1
    17    8   11 1
    18    9   10 2
    19   12   13 2
    20   12   14 1
    21   14   19 ar
    22   14   15 ar
    23   15   16 ar
    24   15   41 1
    25   16   17 ar
    26   16   42 1
    27   17   18 ar
    28   17   43 1
    29   18   19 ar
    30   18   20 1
    31   19   44 1
    32   20   21 1
    33   21   22 1
    34   21   45 1
    35   21   46 1
    36   22   27 ar
    37   22   23 ar
    38   23   24 ar
    39   23   47 1
    40   24   25 ar
    41   24   48 1
    42   25   26 ar
    43   25   49 1
    44   26   27 ar
    45   26   50 1
    46   27   28 1
    47   29   34 ar
    48   29   30 ar
    49   30   31 ar
    50   30   51 1
    51   31   32 ar
    52   31   52 1
    53   32   33 ar
    54   32   35 1
    55   33   34 ar
    56   33   53 1
    57   34   54 1
@<TRIPOS>MOLECULE
ZINC40103131
   59    62     0     0     0
SMALL
USER_CHARGES

@<TRIPOS>ATOM
      1 C1          0.2814    2.0676   -0.4701 C.3       1 <0>        -0.1495
      2 C2          0.1502    0.5484   -0.3451 C.3       1 <0>        -0.1187
      3 C3          0.7854   -0.1205   -1.5657 C.3       1 <0>        -0.1442
      4 C4          0.6542   -1.6398   -1.4408 C.3       1 <0>         0.1388
      5 N1          1.2373   -2.2792   -2.6228 N.am      1 <0>        -0.6138
      6 C5          0.5378   -2.5737   -3.8789 C.3       1 <0>         0.2676
      7 H1         -0.2932   -3.2544   -3.6943 H         1 <0>         0.0738
      8 C6          1.5547   -3.2287   -4.7841 C.2       1 <0>        -0.5117
      9 C7          2.7144   -3.2905   -4.0885 C.2       1 <0>         0.2724
     10 C8          2.5104   -2.6950   -2.7510 C.2       1 <0>         0.5191
     11 O1          3.3654   -2.5978   -1.8932 O.2       1 <0>        -0.5352
     12 O2          3.8764   -3.8104   -4.5463 O.3       1 <0>        -0.6534
     13 C9          1.3290   -3.7058   -6.1516 C.2       1 <0>         0.5062
     14 O3          1.8630   -3.1423   -7.0884 O.2       1 <0>        -0.4678
     15 C10         0.4524   -4.8720   -6.3926 C.ar      1 <0>        -0.0958
     16 C11        -0.2104   -5.4831   -5.3256 C.ar      1 <0>        -0.0994
     17 C12        -1.0273   -6.5707   -5.5542 C.ar      1 <0>        -0.0981
     18 C13        -1.1926   -7.0595   -6.8375 C.ar      1 <0>        -0.1950
     19 C14        -0.5380   -6.4588   -7.9045 C.ar      1 <0>         0.1095
     20 C15         0.2796   -5.3626   -7.6876 C.ar      1 <0>        -0.1032
     21 O4         -0.7043   -6.9435   -9.1633 O.3       1 <0>        -0.3090
     22 C16        -1.5666   -8.0729   -9.3149 C.3       1 <0>         0.1004
     23 C17        -1.6280   -8.4665  -10.7683 C.ar      1 <0>        -0.0878
     24 C18        -2.5854   -7.9091  -11.5952 C.ar      1 <0>        -0.0818
     25 C19        -2.6422   -8.2697  -12.9283 C.ar      1 <0>        -0.1142
     26 C20        -1.7407   -9.1887  -13.4350 C.ar      1 <0>        -0.0269
     27 C21        -0.7828   -9.7462  -12.6070 C.ar      1 <0>        -0.1137
     28 C22        -0.7233   -9.3806  -11.2754 C.ar      1 <0>        -0.0813
     29 Cl1        -1.8118   -9.6425  -15.1092 Cl        1 <0>        -0.0705
     30 C23         0.0331   -1.2978   -4.5023 C.ar      1 <0>        -0.1119
     31 C24        -1.2678   -1.2209   -4.9629 C.ar      1 <0>        -0.0891
     32 C25        -1.7310   -0.0508   -5.5347 C.ar      1 <0>        -0.1381
     33 C26        -0.8939    1.0439   -5.6466 C.ar      1 <0>        -0.0989
     34 C27         0.4069    0.9695   -5.1864 C.ar      1 <0>        -0.1655
     35 C28         0.8705   -0.2006   -4.6086 C.ar      1 <0>         0.1360
     36 F1          2.1407   -0.2730   -4.1541 F         1 <0>        -0.1250
     37 H2          1.3359    2.3379   -0.5248 H         1 <0>         0.0531
     38 H3         -0.2270    2.4031   -1.3740 H         1 <0>         0.0524
     39 H4         -0.1712    2.5441    0.3995 H         1 <0>         0.0506
     40 H5          0.6586    0.2129    0.5588 H         1 <0>         0.0609
     41 H6         -0.9044    0.2781   -0.2904 H         1 <0>         0.0597
     42 H7          0.2770    0.2149   -2.4696 H         1 <0>         0.0666
     43 H8          1.8400    0.1498   -1.6204 H         1 <0>         0.0674
     44 H9          1.1804   -1.9777   -0.5480 H         1 <0>         0.0779
     45 H10        -0.3995   -1.9084   -1.3649 H         1 <0>         0.0717
     46 H11        -0.0830   -5.1045   -4.3222 H         1 <0>         0.1363
     47 H12        -1.5393   -7.0424   -4.7284 H         1 <0>         0.1257
     48 H13        -1.8330   -7.9119   -7.0102 H         1 <0>         0.1242
     49 H14         0.7857   -4.8917   -8.5173 H         1 <0>         0.1368
     50 H15        -1.1799   -8.9066   -8.7287 H         1 <0>         0.0728
     51 H16        -2.5666   -7.8160   -8.9655 H         1 <0>         0.0725
     52 H17        -3.2893   -7.1920  -11.1994 H         1 <0>         0.1355
     53 H18        -3.3905   -7.8344  -13.5741 H         1 <0>         0.1361
     54 H19        -0.0789  -10.4639  -13.0019 H         1 <0>         0.1363
     55 H20         0.0274   -9.8121  -10.6300 H         1 <0>         0.1361
     56 H21        -1.9226   -2.0754   -4.8763 H         1 <0>         0.1276
     57 H22        -2.7476    0.0083   -5.8946 H         1 <0>         0.1228
     58 H23        -1.2566    1.9574   -6.0941 H         1 <0>         0.1245
     59 H24         1.0607    1.8245   -5.2742 H         1 <0>         0.1283
@<TRIPOS>BOND
     1    1    2 1
     2    1   37 1
     3    1   38 1
     4    1   39 1
     5    2    3 1
     6    2   40 1
     7    2   41 1
     8    3    4 1
     9    3   42 1
    10    3   43 1
    11    4    5 1
    12    4   44 1
    13    4   45 1
    14    5   10 am
    15    5    6 1
    16    6    7 1
    17    6    8 1
    18    6   30 1
    19    8    9 2
    20    8   13 1
    21    9   10 1
    22    9   12 1
    23   10   11 2
    24   13   14 2
    25   13   15 1
    26   15   20 ar
    27   15   16 ar
    28   16   17 ar
    29   16   46 1
    30   17   18 ar
    31   17   47 1
    32   18   19 ar
    33   18   48 1
    34   19   20 ar
    35   19   21 1
    36   20   49 1
    37   21   22 1
    38   22   23 1
    39   22   50 1
    40   22   51 1
    41   23   28 ar
    42   23   24 ar
    43   24   25 ar
    44   24   52 1
    45   25   26 ar
    46   25   53 1
    47   26   27 ar
    48   26   29 1
    49   27   28 ar
    50   27   54 1
    51   28   55 1
    52   30   35 ar
    53   30   31 ar
    54   31   32 ar
    55   31   56 1
    56   32   33 ar
    57   32   57 1
    58   33   34 ar
    59   33   58 1
    60   34   35 ar
    61   34   59 1
    62   35   36 1
@<TRIPOS>MOLECULE
ZINC44320553
   52    55     0     0     0
SMALL
USER_CHARGES

@<TRIPOS>ATOM
      1 C1          0.9150    0.6349   -2.6505 C.ar      1 <0>        -0.1176
      2 C2          2.1192    1.3121   -2.5789 C.ar      1 <0>        -0.1132
      3 C3          3.2747    0.6372   -2.2278 C.ar      1 <0>        -0.0935
      4 C4          3.2281   -0.7123   -1.9481 C.ar      1 <0>        -0.0828
      5 C5          2.0211   -1.4023   -2.0170 C.ar      1 <0>        -0.0497
      6 C6          0.8590   -0.7149   -2.3724 C.ar      1 <0>        -0.0988
      7 C7          2.2467   -2.8280   -1.6728 C.ar      1 <0>        -0.0604
      8 C8          1.3640   -3.9074   -1.6008 C.ar      1 <0>        -0.0988
      9 C9          1.8311   -5.1570   -1.2509 C.ar      1 <0>        -0.1205
     10 C10         3.1725   -5.3465   -0.9704 C.ar      1 <0>        -0.1134
     11 C11         4.0529   -4.2816   -1.0398 C.ar      1 <0>        -0.0858
     12 C12         3.5946   -3.0287   -1.3888 C.ar      1 <0>        -0.0772
     13 C13         4.2948   -1.7012   -1.5464 C.3       1 <0>        -0.0103
     14 C14         4.9308   -1.2804   -0.2200 C.3       1 <0>         0.1087
     15 O1          6.0149   -2.1587    0.0884 O.3       1 <0>        -0.3682
     16 C15         6.6857   -1.9237    1.2319 C.2       1 <0>         0.6534
     17 O2          6.3595   -0.9982    1.9484 O.2       1 <0>        -0.5720
     18 N1          7.7190   -2.7152    1.5818 N.am      1 <0>        -0.6755
     19 C16         8.4489   -2.4595    2.8261 C.3       1 <0>         0.0925
     20 H1          7.7534   -2.1135    3.5907 H         1 <0>         0.0922
     21 C17         9.1232   -3.7499    3.2962 C.3       1 <0>        -0.0948
     22 C18         8.0699   -4.7783    3.6187 C.ar      1 <0>        -0.0267
     23 C19         6.7324   -4.4292    3.5916 C.ar      1 <0>        -0.0874
     24 C20         5.7657   -5.3715    3.8868 C.ar      1 <0>        -0.1146
     25 C21         6.1371   -6.6659    4.2097 C.ar      1 <0>         0.0855
     26 C22         7.4767   -7.0143    4.2365 C.ar      1 <0>        -0.1065
     27 C23         8.4416   -6.0714    3.9358 C.ar      1 <0>        -0.1620
     28 C24         9.8995   -6.4519    3.9588 C.3       1 <0>         0.5116
     29 F1         10.0272   -7.7853    4.3625 F         1 <0>        -0.1795
     30 F2         10.4418   -6.2984    2.6783 F         1 <0>        -0.1707
     31 F3         10.5831   -5.6252    4.8568 F         1 <0>        -0.1676
     32 F4          5.1929   -7.5879    4.4989 F         1 <0>        -0.1361
     33 C25         9.4970   -1.4037    2.5857 C.2       1 <0>         0.4913
     34 O3          9.6227   -0.9106    1.4777 O.co2     1 <0>        -0.6773
     35 O4         10.2194   -1.0427    3.4991 O.co2     1 <0>        -0.6899
     36 H2          0.0144    1.1661   -2.9209 H         1 <0>         0.1258
     37 H3          2.1573    2.3690   -2.7977 H         1 <0>         0.1283
     38 H4          4.2139    1.1675   -2.1732 H         1 <0>         0.1291
     39 H5         -0.0831   -1.2398   -2.4298 H         1 <0>         0.1222
     40 H6          0.3160   -3.7638   -1.8185 H         1 <0>         0.1204
     41 H7          1.1470   -5.9909   -1.1952 H         1 <0>         0.1243
     42 H8          3.5329   -6.3271   -0.6966 H         1 <0>         0.1264
     43 H9          5.0997   -4.4316   -0.8205 H         1 <0>         0.1313
     44 H10         5.0561   -1.7684   -2.3236 H         1 <0>         0.1149
     45 H11         5.3029   -0.2592   -0.3033 H         1 <0>         0.0749
     46 H12         4.1847   -1.3316    0.5730 H         1 <0>         0.0683
     47 H13         7.9794   -3.4540    1.0099 H         1 <0>         0.3982
     48 H14         9.7718   -4.1294    2.5066 H         1 <0>         0.0926
     49 H15         9.7167   -3.5459    4.1873 H         1 <0>         0.1182
     50 H16         6.4430   -3.4196    3.3401 H         1 <0>         0.1503
     51 H17         4.7210   -5.0985    3.8659 H         1 <0>         0.1421
     52 H18         7.7675   -8.0234    4.4886 H         1 <0>         0.1481
@<TRIPOS>BOND
     1    1    6 ar
     2    1    2 ar
     3    1   36 1
     4    2    3 ar
     5    2   37 1
     6    3    4 ar
     7    3   38 1
     8    4   13 1
     9    4    5 ar
    10    5    6 ar
    11    5    7 1
    12    6   39 1
    13    7   12 ar
    14    7    8 ar
    15    8    9 ar
    16    8   40 1
    17    9   10 ar
    18    9   41 1
    19   10   11 ar
    20   10   42 1
    21   11   12 ar
    22   11   43 1
    23   12   13 1
    24   13   14 1
    25   13   44 1
    26   14   15 1
    27   14   45 1
    28   14   46 1
    29   15   16 1
    30   16   17 2
    31   16   18 am
    32   18   19 1
    33   18   47 1
    34   19   20 1
    35   19   21 1
    36   19   33 1
    37   21   22 1
    38   21   48 1
    39   21   49 1
    40   22   27 ar
    41   22   23 ar
    42   23   24 ar
    43   23   50 1
    44   24   25 ar
    45   24   51 1
    46   25   26 ar
    47   25   32 1
    48   26   27 ar
    49   26   52 1
    50   27   28 1
    51   28   29 1
    52   28   30 1
    53   28   31 1
    54   33   34 2
    55   33   35 1
@<TRIPOS>MOLECULE
ZINC59364797
   52    54     0     0     0
SMALL
USER_CHARGES

@<TRIPOS>ATOM
      1 C1         -0.5194    1.4699   -0.2248 C.3       1 <0>        -0.1439
      2 C2         -0.4130   -0.0561   -0.1956 C.3       1 <0>         0.0632
      3 O1          0.3123   -0.5050   -1.3422 O.3       1 <0>        -0.3410
      4 C3          0.4962   -1.8355   -1.4683 C.2       1 <0>         0.5377
      5 C4          1.2297   -2.3670   -2.6175 C.2       1 <0>        -0.4198
      6 C5          1.4313   -3.7128   -2.7824 C.2       1 <0>         0.3440
      7 O2          0.9534   -4.5980   -1.8787 O.3       1 <0>        -0.5768
      8 C6          2.1499   -4.1569   -3.9186 C.2       1 <0>        -0.1016
      9 C7          2.4613   -5.4357   -4.2741 C.2       1 <0>        -0.0338
     10 C8          3.0746   -5.7054   -5.5782 C.ar      1 <0>        -0.0286
     11 C9          2.9609   -4.7701   -6.6158 C.ar      1 <0>        -0.0885
     12 C10         3.5390   -5.0287   -7.8389 C.ar      1 <0>        -0.0359
     13 C11         4.2347   -6.2156   -8.0454 C.ar      1 <0>         0.1081
     14 C12         4.3503   -7.1478   -7.0192 C.ar      1 <0>        -0.0440
     15 C13         3.7815   -6.8969   -5.7901 C.ar      1 <0>        -0.0795
     16 Cl1         5.2193   -8.6267   -7.2861 Cl        1 <0>        -0.0485
     17 O3          4.8027   -6.4654   -9.2533 O.3       1 <0>        -0.3125
     18 C14         6.1483   -6.0227   -9.4414 C.3       1 <0>         0.0910
     19 C15         6.6066   -6.3847  -10.8306 C.2       1 <0>        -0.1485
     20 C16         7.2509   -5.5058  -11.5576 C.2       1 <0>        -0.1748
     21 Cl2         3.3988   -3.8716   -9.1255 Cl        1 <0>        -0.0423
     22 S1          2.5503   -2.6441   -4.7737 S.3       1 <0>        -0.1131
     23 C17         1.7822   -1.4838   -3.6566 C.2       1 <0>         0.3038
     24 N1          1.7259   -0.1671   -3.7402 N.2       1 <0>        -0.4864
     25 C18         2.3073    0.4755   -4.7951 C.ar      1 <0>         0.1223
     26 C19         3.5876    0.1096   -5.2215 C.ar      1 <0>        -0.1619
     27 C20         4.1683    0.7634   -6.2878 C.ar      1 <0>        -0.0964
     28 C21         3.4871    1.7793   -6.9354 C.ar      1 <0>        -0.1206
     29 C22         2.2196    2.1474   -6.5188 C.ar      1 <0>        -0.1042
     30 C23         1.6232    1.4988   -5.4581 C.ar      1 <0>        -0.1190
     31 C24         4.1289    2.4886   -8.0998 C.3       1 <0>        -0.1060
     32 O4          0.0521   -2.5934   -0.6267 O.2       1 <0>        -0.5298
     33 H1          0.4803    1.9042   -0.2152 H         1 <0>         0.0616
     34 H2         -1.0418    1.7805   -1.1296 H         1 <0>         0.0617
     35 H3         -1.0726    1.8123    0.6498 H         1 <0>         0.0661
     36 H4          0.1094   -0.3666    0.7092 H         1 <0>         0.0527
     37 H5         -1.4127   -0.4903   -0.2052 H         1 <0>         0.0530
     38 H6          2.2561   -6.2501   -3.5950 H         1 <0>         0.1583
     39 H7          2.4208   -3.8485   -6.4568 H         1 <0>         0.1640
     40 H8          3.8763   -7.6189   -4.9926 H         1 <0>         0.1505
     41 H9          6.1964   -4.9413   -9.3132 H         1 <0>         0.0630
     42 H10         6.7952   -6.5046   -8.7083 H         1 <0>         0.0663
     43 H11         6.4039   -7.3687  -11.2269 H         1 <0>         0.1189
     44 H12         7.4536   -4.5217  -11.1613 H         1 <0>         0.0990
     45 H13         7.5794   -5.7652  -12.5532 H         1 <0>         0.1060
     46 H14         4.1205   -0.6827   -4.7169 H         1 <0>         0.1248
     47 H15         5.1573    0.4822   -6.6181 H         1 <0>         0.1157
     48 H16         1.6944    2.9413   -7.0289 H         1 <0>         0.1180
     49 H17         0.6322    1.7839   -5.1371 H         1 <0>         0.1233
     50 H18         3.8727    1.9730   -9.0254 H         1 <0>         0.0634
     51 H19         3.7669    3.5158   -8.1439 H         1 <0>         0.0605
     52 H20         5.2114    2.4901   -7.9724 H         1 <0>         0.0603
@<TRIPOS>BOND
     1    1    2 1
     2    1   33 1
     3    1   34 1
     4    1   35 1
     5    2    3 1
     6    2   36 1
     7    2   37 1
     8    3    4 1
     9    4    5 1
    10    4   32 2
    11    5   23 1
    12    5    6 2
    13    6    7 1
    14    6    8 1
    15    8    9 2
    16    8   22 1
    17    9   10 1
    18    9   38 1
    19   10   15 ar
    20   10   11 ar
    21   11   12 ar
    22   11   39 1
    23   12   13 ar
    24   12   21 1
    25   13   14 ar
    26   13   17 1
    27   14   15 ar
    28   14   16 1
    29   15   40 1
    30   17   18 1
    31   18   19 1
    32   18   41 1
    33   18   42 1
    34   19   20 2
    35   19   43 1
    36   20   44 1
    37   20   45 1
    38   22   23 1
    39   23   24 2
    40   24   25 1
    41   25   30 ar
    42   25   26 ar
    43   26   27 ar
    44   26   46 1
    45   27   28 ar
    46   27   47 1
    47   28   29 ar
    48   28   31 1
    49   29   30 ar
    50   29   48 1
    51   30   49 1
    52   31   50 1
    53   31   51 1
    54   31   52 1
@<TRIPOS>MOLECULE
ZINC20880292
   49    52     0     0     0
SMALL
USER_CHARGES
2-chloro-4-[[2-[(2,4-dichlorophenyl)methoxy]-1-naphthyl]methylamino]benzoic acid
@<TRIPOS>ATOM
      1 C1         -0.0126    1.0758    0.0080 C.ar      1 <0>        -0.1261
      2 C2         -1.2349    1.7456    0.0174 C.ar      1 <0>        -0.1031
      3 C3         -1.2885    3.1053    0.0301 C.ar      1 <0>        -0.1111
      4 C4         -0.0953    3.8487    0.0228 C.ar      1 <0>         0.0007
      5 C5          1.1479    3.1673    0.0076 C.ar      1 <0>        -0.0844
      6 C6          1.1627    1.7621    0.0004 C.ar      1 <0>        -0.0968
      7 C7          2.3419    3.9087   -0.0004 C.ar      1 <0>        -0.0573
      8 C8          2.2920    5.2679    0.0065 C.ar      1 <0>        -0.1938
      9 C9          1.0672    5.9421    0.0215 C.ar      1 <0>         0.1524
     10 C10        -0.1121    5.2527    0.0296 C.ar      1 <0>        -0.1328
     11 C11        -1.4236    5.9949    0.0463 C.3       1 <0>         0.1815
     12 N1         -1.8621    6.2424   -1.3295 N.pl3     1 <0>        -0.7477
     13 C12        -3.0540    6.9168   -1.5684 C.ar      1 <0>         0.2297
     14 C13        -3.8328    7.3512   -0.4985 C.ar      1 <0>        -0.2158
     15 C14        -5.0022    8.0185   -0.7255 C.ar      1 <0>        -0.0193
     16 C15        -5.4287    8.2592   -2.0358 C.ar      1 <0>        -0.1672
     17 C16        -4.6507    7.8190   -3.1133 C.ar      1 <0>         0.0432
     18 C17        -3.4689    7.1509   -2.8759 C.ar      1 <0>        -0.2117
     19 Cl1        -5.1725    8.1142   -4.7425 Cl        1 <0>        -0.0522
     20 C18        -6.6928    8.9744   -2.2813 C.2       1 <0>         0.4892
     21 O1         -7.0616    9.1831   -3.4203 O.co2     1 <0>        -0.6147
     22 O2         -7.4404    9.3974   -1.2428 O.co2     1 <0>        -0.7656
     23 O3          1.0498    7.3008    0.0286 O.3       1 <0>        -0.3001
     24 C19         2.3145    7.9659    0.0201 C.3       1 <0>         0.0994
     25 C20         2.0979    9.4572    0.0298 C.ar      1 <0>        -0.0794
     26 C21         0.8137    9.9689    0.0445 C.ar      1 <0>        -0.0669
     27 C22         0.6143   11.3364    0.0538 C.ar      1 <0>        -0.0987
     28 C23         1.7000   12.1944    0.0484 C.ar      1 <0>        -0.0221
     29 C24         2.9850   11.6830    0.0337 C.ar      1 <0>        -0.1020
     30 C25         3.1841   10.3139    0.0297 C.ar      1 <0>        -0.0208
     31 Cl2         4.7967    9.6711    0.0179 Cl        1 <0>        -0.0573
     32 Cl3         1.4493   13.9121    0.0595 Cl        1 <0>        -0.0536
     33 H1          0.0021   -0.0041    0.0020 H         1 <0>         0.1220
     34 H2         -2.1530    1.1769    0.0191 H         1 <0>         0.1242
     35 H3         -2.2429    3.6108    0.0416 H         1 <0>         0.1333
     36 H4          2.1021    1.2293   -0.0107 H         1 <0>         0.1253
     37 H5          3.2952    3.4012   -0.0123 H         1 <0>         0.1317
     38 H6          3.2115    5.8344    0.0000 H         1 <0>         0.1313
     39 H7         -2.1799    5.3912    0.5693 H         1 <0>         0.0653
     40 H8         -1.2953    6.9545    0.5685 H         1 <0>         0.0697
     41 H9         -1.2482    5.8946   -2.1734 H         1 <0>         0.4136
     42 H10        -3.5085    7.1630    0.5144 H         1 <0>         0.1161
     43 H11        -5.6006    8.3571    0.1074 H         1 <0>         0.1339
     44 H12        -2.8655    6.8091   -3.7039 H         1 <0>         0.1205
     45 H13         2.8888    7.6730    0.9114 H         1 <0>         0.0843
     46 H14         2.8719    7.6822   -0.8848 H         1 <0>         0.0848
     47 H15        -0.0340    9.2998    0.0491 H         1 <0>         0.1547
     48 H16        -0.3892   11.7356    0.0657 H         1 <0>         0.1470
     49 H17         3.8327   12.3522    0.0298 H         1 <0>         0.1465
@<TRIPOS>BOND
     1    1    6 ar
     2    1    2 ar
     3    1   33 1
     4    2    3 ar
     5    2   34 1
     6    3    4 ar
     7    3   35 1
     8    4   10 ar
     9    4    5 ar
    10    5    6 ar
    11    5    7 ar
    12    6   36 1
    13    7    8 ar
    14    7   37 1
    15    8    9 ar
    16    8   38 1
    17    9   10 ar
    18    9   23 1
    19   10   11 1
    20   11   12 1
    21   11   39 1
    22   11   40 1
    23   12   13 1
    24   12   41 1
    25   13   18 ar
    26   13   14 ar
    27   14   15 ar
    28   14   42 1
    29   15   16 ar
    30   15   43 1
    31   16   17 ar
    32   16   20 1
    33   17   18 ar
    34   17   19 1
    35   18   44 1
    36   20   21 2
    37   20   22 1
    38   23   24 1
    39   24   25 1
    40   24   45 1
    41   24   46 1
    42   25   30 ar
    43   25   26 ar
    44   26   27 ar
    45   26   47 1
    46   27   28 ar
    47   27   48 1
    48   28   29 ar
    49   28   32 1
    50   29   30 ar
    51   29   49 1
    52   30   31 1
@<TRIPOS>MOLECULE
ZINC34802489
   52    54     0     0     0
SMALL
USER_CHARGES

@<TRIPOS>ATOM
      1 C1         -0.0187    1.5258    0.0104 C.3       1 <0>        -0.1533
      2 C2          0.0021   -0.0041    0.0020 C.3       1 <0>         0.0654
      3 O1          0.6709   -0.4649   -1.1737 O.3       1 <0>        -0.3446
      4 C3          0.7759   -1.7994   -1.3348 C.2       1 <0>         0.4662
      5 C4          1.4037   -2.3070   -2.4369 C.2       1 <0>        -0.3865
      6 C5          1.5353   -3.8040   -2.6552 C.3       1 <0>         0.1213
      7 H1          2.0675   -4.2269   -1.8031 H         1 <0>         0.0530
      8 C6          2.2561   -4.2272   -3.9219 C.2       1 <0>        -0.2519
      9 C7          2.7174   -3.2438   -4.7442 C.2       1 <0>         0.2390
     10 N1          2.5574   -1.9547   -4.4731 N.2       1 <0>        -0.6241
     11 C8          1.9484   -1.4710   -3.4168 C.2       1 <0>         0.3046
     12 C9          1.8389    0.0229   -3.2517 C.3       1 <0>        -0.0595
     13 S1          2.6273    0.8466   -4.6626 S.3       1 <0>        -0.0335
     14 C10         2.4181    2.5633   -4.3253 C.ar      1 <0>        -0.0920
     15 C11         1.7661    2.9710   -3.1679 C.ar      1 <0>        -0.1293
     16 C12         1.6036    4.3171   -2.9063 C.ar      1 <0>        -0.0883
     17 C13         2.0893    5.2598   -3.7956 C.ar      1 <0>        -0.0534
     18 C14         2.7391    4.8569   -4.9492 C.ar      1 <0>        -0.0923
     19 C15         2.9097    3.5123   -5.2134 C.ar      1 <0>        -0.0953
     20 Cl1         1.8826    6.9512   -3.4636 Cl        1 <0>        -0.0817
     21 C16         3.4371   -3.6348   -6.0093 C.3       1 <0>        -0.1089
     22 C17         2.4449   -5.6104   -4.2411 C.1       1 <0>         0.2942
     23 N2          2.5947   -6.7076   -4.4943 N.1       1 <0>        -0.4871
     24 C18         0.1511   -4.3990   -2.6846 C.ar      1 <0>         0.0109
     25 C19        -0.7585   -3.9866   -3.6406 C.ar      1 <0>        -0.1077
     26 C20        -2.0280   -4.5323   -3.6676 C.ar      1 <0>        -0.0981
     27 C21        -2.3883   -5.4910   -2.7388 C.ar      1 <0>        -0.1420
     28 C22        -1.4787   -5.9039   -1.7836 C.ar      1 <0>        -0.0823
     29 C23        -0.2074   -5.3612   -1.7593 C.ar      1 <0>        -0.1634
     30 C24         0.7861   -5.8152   -0.7211 C.3       1 <0>         0.5013
     31 F1          0.1965   -6.7865    0.0952 F         1 <0>        -0.1934
     32 F2          1.9085   -6.3581   -1.3557 F         1 <0>        -0.1825
     33 F3          1.1755   -4.7226    0.0611 F         1 <0>        -0.1446
     34 O2          0.2614   -2.6328   -0.4084 O.3       1 <0>        -0.6253
     35 H2          1.0039    1.9031    0.0027 H         1 <0>         0.0614
     36 H3         -0.5459    1.8868   -0.8726 H         1 <0>         0.0611
     37 H4         -0.5289    1.8773    0.9072 H         1 <0>         0.0715
     38 H5          0.5293   -0.3651    0.8851 H         1 <0>         0.0598
     39 H6         -1.0205   -0.3814    0.0098 H         1 <0>         0.0590
     40 H7          0.7876    0.3073   -3.2060 H         1 <0>         0.1096
     41 H8          2.3372    0.3241   -2.3303 H         1 <0>         0.1099
     42 H9          1.3866    2.2358   -2.4737 H         1 <0>         0.1364
     43 H10         1.0967    4.6346   -2.0071 H         1 <0>         0.1311
     44 H11         3.1167    5.5948   -5.6414 H         1 <0>         0.1326
     45 H12         3.4210    3.1985   -6.1115 H         1 <0>         0.1350
     46 H13         2.7167   -3.7337   -6.8213 H         1 <0>         0.0707
     47 H14         4.1680   -2.8672   -6.2635 H         1 <0>         0.0744
     48 H15         3.9470   -4.5862   -5.8580 H         1 <0>         0.0605
     49 H16        -0.4771   -3.2377   -4.3662 H         1 <0>         0.1241
     50 H17        -2.7388   -4.2096   -4.4140 H         1 <0>         0.1205
     51 H18        -3.3805   -5.9169   -2.7594 H         1 <0>         0.1218
     52 H19        -1.7602   -6.6526   -1.0578 H         1 <0>         0.1256
@<TRIPOS>BOND
     1    1    2 1
     2    1   35 1
     3    1   36 1
     4    1   37 1
     5    2    3 1
     6    2   38 1
     7    2   39 1
     8    3    4 1
     9    4    5 2
    10    4   34 1
    11    5   11 1
    12    5    6 1
    13    6    7 1
    14    6    8 1
    15    6   24 1
    16    8    9 2
    17    8   22 1
    18    9   10 1
    19    9   21 1
    20   10   11 2
    21   11   12 1
    22   12   13 1
    23   12   40 1
    24   12   41 1
    25   13   14 1
    26   14   19 ar
    27   14   15 ar
    28   15   16 ar
    29   15   42 1
    30   16   17 ar
    31   16   43 1
    32   17   18 ar
    33   17   20 1
    34   18   19 ar
    35   18   44 1
    36   19   45 1
    37   21   46 1
    38   21   47 1
    39   21   48 1
    40   22   23 3
    41   24   29 ar
    42   24   25 ar
    43   25   26 ar
    44   25   49 1
    45   26   27 ar
    46   26   50 1
    47   27   28 ar
    48   27   51 1
    49   28   29 ar
    50   28   52 1
    51   29   30 1
    52   30   31 1
    53   30   32 1
    54   30   33 1
@<TRIPOS>MOLECULE
ZINC40030528
   54    57     0     0     0
SMALL
USER_CHARGES

@<TRIPOS>ATOM
      1 C1          3.2509    0.3934   -0.9096 C.2       1 <0>        -0.1884
      2 C2          2.1725   -0.2382   -0.5172 C.2       1 <0>        -0.1600
      3 C3          2.1818   -1.7401   -0.3937 C.3       1 <0>         0.1599
      4 N1          1.7673   -2.1215    0.9587 N.am      1 <0>        -0.6095
      5 C4          2.6533   -2.3042    2.1144 C.3       1 <0>         0.2635
      6 H1          3.1740   -1.3732    2.3383 H         1 <0>         0.0726
      7 C5          1.7622   -2.6923    3.2711 C.2       1 <0>        -0.5035
      8 C6          0.4955   -2.7213    2.7958 C.2       1 <0>         0.2645
      9 C7          0.5064   -2.3605    1.3625 C.2       1 <0>         0.5108
     10 O1         -0.4777   -2.2926    0.6531 O.2       1 <0>        -0.5333
     11 O2         -0.6063   -3.0274    3.5188 O.3       1 <0>        -0.6518
     12 C8          2.1879   -2.9818    4.6442 C.2       1 <0>         0.5066
     13 O3          2.0617   -4.1046    5.0964 O.2       1 <0>        -0.4758
     14 C9          2.7694   -1.9114    5.4778 C.ar      1 <0>        -0.1714
     15 C10         2.8012   -0.5952    5.0069 C.ar      1 <0>        -0.0247
     16 C11         3.3445    0.4000    5.7875 C.ar      1 <0>        -0.1648
     17 C12         3.8612    0.0979    7.0426 C.ar      1 <0>         0.1406
     18 C13         3.8316   -1.2097    7.5146 C.ar      1 <0>        -0.2228
     19 C14         3.2849   -2.2099    6.7428 C.ar      1 <0>        -0.0329
     20 O4          4.3963    1.0818    7.8087 O.3       1 <0>        -0.3110
     21 C15         4.9092    0.7021    9.0873 C.3       1 <0>         0.0999
     22 C16         5.4584    1.9172    9.7893 C.ar      1 <0>        -0.0795
     23 C17         5.4038    3.1543    9.1748 C.ar      1 <0>        -0.0849
     24 C18         5.9075    4.2689    9.8186 C.ar      1 <0>        -0.1141
     25 C19         6.4662    4.1473   11.0774 C.ar      1 <0>        -0.1085
     26 C20         6.5214    2.9111   11.6927 C.ar      1 <0>        -0.1095
     27 C21         6.0122    1.7959   11.0511 C.ar      1 <0>        -0.0313
     28 Cl1         6.0752    0.2438   11.8262 Cl        1 <0>        -0.0657
     29 C22         3.6493   -3.4002    1.8354 C.ar      1 <0>        -0.0655
     30 C23         3.2295   -4.5858    1.2618 C.ar      1 <0>        -0.0768
     31 C24         4.1425   -5.5914    1.0057 C.ar      1 <0>        -0.1109
     32 C25         5.4769   -5.4112    1.3236 C.ar      1 <0>        -0.0409
     33 C26         5.8965   -4.2244    1.8977 C.ar      1 <0>        -0.1125
     34 C27         4.9835   -3.2174    2.1481 C.ar      1 <0>        -0.1036
     35 Cl2         6.6241   -6.6740    1.0029 Cl        1 <0>        -0.0859
     36 H2          4.1468   -0.1622   -1.1446 H         1 <0>         0.0959
     37 H3          3.2429    1.4694   -1.0024 H         1 <0>         0.0964
     38 H4          1.2766    0.3173   -0.2822 H         1 <0>         0.1101
     39 H5          1.4911   -2.1687   -1.1198 H         1 <0>         0.0868
     40 H6          3.1877   -2.1141   -0.5844 H         1 <0>         0.0795
     41 H7          2.4004   -0.3598    4.0321 H         1 <0>         0.1415
     42 H8          3.3698    1.4168    5.4244 H         1 <0>         0.1312
     43 H9          4.2343   -1.4402    8.4899 H         1 <0>         0.1267
     44 H10         3.2579   -3.2244    7.1122 H         1 <0>         0.1323
     45 H11         4.1082    0.2678    9.6857 H         1 <0>         0.0824
     46 H12         5.7040   -0.0322    8.9565 H         1 <0>         0.0822
     47 H13         4.9677    3.2498    8.1914 H         1 <0>         0.1438
     48 H14         5.8649    5.2351    9.3380 H         1 <0>         0.1314
     49 H15         6.8600    5.0185   11.5798 H         1 <0>         0.1324
     50 H16         6.9582    2.8162   12.6759 H         1 <0>         0.1353
     51 H17         2.1877   -4.7265    1.0140 H         1 <0>         0.1273
     52 H18         3.8143   -6.5178    0.5579 H         1 <0>         0.1285
     53 H19         6.9380   -4.0833    2.1464 H         1 <0>         0.1281
     54 H20         5.3117   -2.2891    2.5919 H         1 <0>         0.1293
@<TRIPOS>BOND
     1    1    2 2
     2    1   36 1
     3    1   37 1
     4    2    3 1
     5    2   38 1
     6    3    4 1
     7    3   39 1
     8    3   40 1
     9    4    9 am
    10    4    5 1
    11    5    6 1
    12    5    7 1
    13    5   29 1
    14    7    8 2
    15    7   12 1
    16    8    9 1
    17    8   11 1
    18    9   10 2
    19   12   13 2
    20   12   14 1
    21   14   19 ar
    22   14   15 ar
    23   15   16 ar
    24   15   41 1
    25   16   17 ar
    26   16   42 1
    27   17   18 ar
    28   17   20 1
    29   18   19 ar
    30   18   43 1
    31   19   44 1
    32   20   21 1
    33   21   22 1
    34   21   45 1
    35   21   46 1
    36   22   27 ar
    37   22   23 ar
    38   23   24 ar
    39   23   47 1
    40   24   25 ar
    41   24   48 1
    42   25   26 ar
    43   25   49 1
    44   26   27 ar
    45   26   50 1
    46   27   28 1
    47   29   34 ar
    48   29   30 ar
    49   30   31 ar
    50   30   51 1
    51   31   32 ar
    52   31   52 1
    53   32   33 ar
    54   32   35 1
    55   33   34 ar
    56   33   53 1
    57   34   54 1
@<TRIPOS>MOLECULE
ZINC44320708
   52    55     0     0     0
SMALL
USER_CHARGES

@<TRIPOS>ATOM
      1 C1         -0.0166    1.3750    0.0096 C.ar      1 <0>        -0.1173
      2 C2          1.1687    2.0883    0.0021 C.ar      1 <0>        -0.1134
      3 C3          2.3801    1.4204   -0.0135 C.ar      1 <0>        -0.0937
      4 C4          2.4083    0.0417   -0.0212 C.ar      1 <0>        -0.0834
      5 C5          1.2210   -0.6848   -0.0133 C.ar      1 <0>        -0.0492
      6 C6          0.0021   -0.0041    0.0020 C.ar      1 <0>        -0.0987
      7 C7          1.5297   -2.1362   -0.0247 C.ar      1 <0>        -0.0607
      8 C8          0.6935   -3.2543   -0.0227 C.ar      1 <0>        -0.0984
      9 C9          1.2378   -4.5215   -0.0354 C.ar      1 <0>        -0.1202
     10 C10         2.6107   -4.6904   -0.0503 C.ar      1 <0>        -0.1131
     11 C11         3.4454   -3.5871   -0.0524 C.ar      1 <0>        -0.0857
     12 C12         2.9100   -2.3164   -0.0397 C.ar      1 <0>        -0.0779
     13 C13         3.5470   -0.9484   -0.0383 C.3       1 <0>        -0.0094
     14 C14         4.3909   -0.7589   -1.3004 C.3       1 <0>         0.1081
     15 O1          5.5287   -1.6218   -1.2466 O.3       1 <0>        -0.3680
     16 C15         6.3794   -1.5772   -2.2892 C.2       1 <0>         0.6485
     17 O2          6.1618   -0.8263   -3.2193 O.2       1 <0>        -0.5707
     18 N1          7.4725   -2.3656   -2.3012 N.am      1 <0>        -0.6739
     19 C16         8.3982   -2.3171   -3.4356 C.3       1 <0>         0.0997
     20 H1          7.8381   -2.1440   -4.3545 H         1 <0>         0.0895
     21 C17         9.1488   -3.6463   -3.5385 C.3       1 <0>        -0.0840
     22 C18         8.1751   -4.7491   -3.8654 C.ar      1 <0>        -0.0048
     23 C19         7.5475   -5.4413   -2.8463 C.ar      1 <0>        -0.1276
     24 C20         6.6541   -6.4530   -3.1446 C.ar      1 <0>        -0.0417
     25 C21         6.3875   -6.7741   -4.4623 C.ar      1 <0>        -0.2366
     26 C22         7.0154   -6.0816   -5.4835 C.ar      1 <0>         0.1529
     27 C23         7.9056   -5.0642   -5.1835 C.ar      1 <0>        -0.1515
     28 F1          6.7559   -6.3949   -6.7718 F         1 <0>        -0.1266
     29 C24         5.4142   -7.8778   -4.7871 C.3       1 <0>         0.5150
     30 F2          4.9147   -8.4235   -3.5998 F         1 <0>        -0.1755
     31 F3          4.3572   -7.3598   -5.5432 F         1 <0>        -0.1740
     32 F4          6.0672   -8.8746   -5.5200 F         1 <0>        -0.1754
     33 C25         9.3856   -1.1972   -3.2307 C.2       1 <0>         0.4921
     34 O3          9.7088   -0.8682   -2.1021 O.co2     1 <0>        -0.6828
     35 O4          9.8613   -0.6201   -4.1936 O.co2     1 <0>        -0.6857
     36 H2         -0.9603    1.9001    0.0260 H         1 <0>         0.1259
     37 H3          1.1483    3.1681    0.0081 H         1 <0>         0.1283
     38 H4          3.3044    1.9791   -0.0200 H         1 <0>         0.1288
     39 H5         -0.9256   -0.5570    0.0076 H         1 <0>         0.1224
     40 H6         -0.3789   -3.1269   -0.0107 H         1 <0>         0.1205
     41 H7          0.5895   -5.3854   -0.0335 H         1 <0>         0.1246
     42 H8          3.0316   -5.6850   -0.0598 H         1 <0>         0.1269
     43 H9          4.5170   -3.7211   -0.0640 H         1 <0>         0.1312
     44 H10         4.1662   -0.8236    0.8500 H         1 <0>         0.1148
     45 H11         3.7917   -1.0020   -2.1780 H         1 <0>         0.0688
     46 H12         4.7233    0.2772   -1.3631 H         1 <0>         0.0744
     47 H13         7.6463   -2.9651   -1.5587 H         1 <0>         0.3973
     48 H14         9.8998   -3.5796   -4.3257 H         1 <0>         0.1016
     49 H15         9.6369   -3.8625   -2.5882 H         1 <0>         0.0905
     50 H16         7.7557   -5.1916   -1.8164 H         1 <0>         0.1411
     51 H17         6.1644   -6.9931   -2.3477 H         1 <0>         0.1462
     52 H18         8.3926   -4.5203   -5.9794 H         1 <0>         0.1509
@<TRIPOS>BOND
     1    1    6 ar
     2    1    2 ar
     3    1   36 1
     4    2    3 ar
     5    2   37 1
     6    3    4 ar
     7    3   38 1
     8    4   13 1
     9    4    5 ar
    10    5    6 ar
    11    5    7 1
    12    6   39 1
    13    7   12 ar
    14    7    8 ar
    15    8    9 ar
    16    8   40 1
    17    9   10 ar
    18    9   41 1
    19   10   11 ar
    20   10   42 1
    21   11   12 ar
    22   11   43 1
    23   12   13 1
    24   13   14 1
    25   13   44 1
    26   14   15 1
    27   14   45 1
    28   14   46 1
    29   15   16 1
    30   16   17 2
    31   16   18 am
    32   18   19 1
    33   18   47 1
    34   19   20 1
    35   19   21 1
    36   19   33 1
    37   21   22 1
    38   21   48 1
    39   21   49 1
    40   22   27 ar
    41   22   23 ar
    42   23   24 ar
    43   23   50 1
    44   24   25 ar
    45   24   51 1
    46   25   26 ar
    47   25   29 1
    48   26   27 ar
    49   26   28 1
    50   27   52 1
    51   29   30 1
    52   29   31 1
    53   29   32 1
    54   33   34 2
    55   33   35 1
@<TRIPOS>MOLECULE
ZINC27525523
   57    59     0     0     0
SMALL
USER_CHARGES

@<TRIPOS>ATOM
      1 C1         -0.2106    1.4586   -1.4290 C.3       1 <0>        -0.1486
      2 C2         -0.1788   -0.0672   -1.3196 C.3       1 <0>         0.0673
      3 O1         -1.4635   -0.5424   -0.9124 O.3       1 <0>        -0.3498
      4 C3         -1.6059   -1.8783   -0.7676 C.2       1 <0>         0.5231
      5 O2         -0.6619   -2.6184   -0.9820 O.2       1 <0>        -0.5493
      6 C4         -2.8388   -2.4125   -0.3707 C.2       1 <0>        -0.3536
      7 C5         -2.9819   -3.7644   -0.0873 C.2       1 <0>         0.3017
      8 N1         -4.1492   -4.2867    0.2909 N.2       1 <0>        -0.6335
      9 C6         -5.2658   -3.6165    0.4378 C.2       1 <0>         0.2894
     10 C7         -5.3416   -2.2419    0.2031 C.2       1 <0>        -0.3852
     11 C8         -6.5230   -1.5536    0.3623 C.2       1 <0>         0.4700
     12 O3         -6.5667   -0.2269    0.1287 O.3       1 <0>        -0.6335
     13 O4         -7.6361   -2.2063    0.7518 O.3       1 <0>        -0.3338
     14 C9         -8.8266   -1.4293    0.8969 C.3       1 <0>         0.0617
     15 C10        -9.9761   -2.3356    1.3419 C.3       1 <0>        -0.1495
     16 C11        -4.0692   -1.5351   -0.2277 C.3       1 <0>         0.1196
     17 H1         -3.8472   -0.7534    0.4988 H         1 <0>         0.0423
     18 C12        -4.3316   -0.8725   -1.5555 C.2       1 <0>        -0.0834
     19 C13        -4.3275    0.4499   -1.6487 C.2       1 <0>        -0.1252
     20 C14        -4.5848    1.0998   -2.9511 C.ar      1 <0>        -0.0149
     21 C15        -4.8380    0.3243   -4.0832 C.ar      1 <0>        -0.1270
     22 C16        -5.0774    0.9371   -5.2960 C.ar      1 <0>        -0.1176
     23 C17        -5.0663    2.3173   -5.3911 C.ar      1 <0>        -0.1443
     24 C18        -4.8156    3.0918   -4.2725 C.ar      1 <0>        -0.1196
     25 C19        -4.5813    2.4914   -3.0525 C.ar      1 <0>        -0.1223
     26 C20        -6.5068   -4.3523    0.8731 C.3       1 <0>        -0.1025
     27 C21        -1.8038   -4.6522   -0.2091 C.ar      1 <0>         0.0043
     28 C22        -0.6974   -4.4656    0.6206 C.ar      1 <0>        -0.0465
     29 C23         0.3974   -5.2961    0.5030 C.ar      1 <0>        -0.1152
     30 C24         0.4003   -6.3135   -0.4366 C.ar      1 <0>        -0.0372
     31 C25        -0.6950   -6.5035   -1.2628 C.ar      1 <0>        -0.1172
     32 C26        -1.7976   -5.6826   -1.1502 C.ar      1 <0>        -0.0830
     33 Cl1         1.7822   -7.3544   -0.5798 Cl        1 <0>        -0.0923
     34 H2          0.7694    1.8210   -1.7396 H         1 <0>         0.0679
     35 H3         -0.9576    1.7545   -2.1655 H         1 <0>         0.0644
     36 H4         -0.4661    1.8871   -0.4599 H         1 <0>         0.0618
     37 H5          0.0767   -0.4958   -2.2886 H         1 <0>         0.0548
     38 H6          0.5682   -0.3632   -0.5830 H         1 <0>         0.0545
     39 H7         -8.6651   -0.6534    1.6452 H         1 <0>         0.0579
     40 H8         -9.0772   -0.9668   -0.0578 H         1 <0>         0.0578
     41 H9        -10.1376   -3.1116    0.5936 H         1 <0>         0.0615
     42 H10        -9.7255   -2.7981    2.2965 H         1 <0>         0.0617
     43 H11       -10.8841   -1.7430    1.4525 H         1 <0>         0.0690
     44 H12        -4.5229   -1.4750   -2.4312 H         1 <0>         0.0889
     45 H13        -4.1362    1.0523   -0.7730 H         1 <0>         0.1101
     46 H14        -4.8461   -0.7532   -4.0104 H         1 <0>         0.1193
     47 H15        -5.2734    0.3381   -6.1730 H         1 <0>         0.1147
     48 H16        -5.2540    2.7921   -6.3428 H         1 <0>         0.1128
     49 H17        -4.8077    4.1687   -4.3535 H         1 <0>         0.1147
     50 H18        -4.3908    3.0972   -2.1790 H         1 <0>         0.1185
     51 H19        -6.2738   -5.4082    1.0107 H         1 <0>         0.0623
     52 H20        -6.8662   -3.9340    1.8133 H         1 <0>         0.0782
     53 H21        -7.2781   -4.2469    0.1101 H         1 <0>         0.0779
     54 H22        -0.6983   -3.6720    1.3533 H         1 <0>         0.1197
     55 H23         1.2542   -5.1526    1.1447 H         1 <0>         0.1249
     56 H24        -0.6873   -7.2984   -1.9938 H         1 <0>         0.1259
     57 H25        -2.6529   -5.8344   -1.7919 H         1 <0>         0.1263
@<TRIPOS>BOND
     1    1    2 1
     2    1   34 1
     3    1   35 1
     4    1   36 1
     5    2    3 1
     6    2   37 1
     7    2   38 1
     8    3    4 1
     9    4    5 2
    10    4    6 1
    11    6   16 1
    12    6    7 2
    13    7    8 1
    14    7   27 1
    15    8    9 2
    16    9   10 1
    17    9   26 1
    18   10   11 2
    19   10   16 1
    20   11   12 1
    21   11   13 1
    22   13   14 1
    23   14   15 1
    24   14   39 1
    25   14   40 1
    26   15   41 1
    27   15   42 1
    28   15   43 1
    29   16   17 1
    30   16   18 1
    31   18   19 2
    32   18   44 1
    33   19   20 1
    34   19   45 1
    35   20   25 ar
    36   20   21 ar
    37   21   22 ar
    38   21   46 1
    39   22   23 ar
    40   22   47 1
    41   23   24 ar
    42   23   48 1
    43   24   25 ar
    44   24   49 1
    45   25   50 1
    46   26   51 1
    47   26   52 1
    48   26   53 1
    49   27   32 ar
    50   27   28 ar
    51   28   29 ar
    52   28   54 1
    53   29   30 ar
    54   29   55 1
    55   30   31 ar
    56   30   33 1
    57   31   32 ar
    58   31   56 1
    59   32   57 1
@<TRIPOS>MOLECULE
ZINC11994578
   49    51     0     0     0
SMALL
USER_CHARGES
(E)-2-cyano-3-[2-[2-(2,5-dimethylphenoxy)ethoxy]-1-naphthyl]prop-2-enoic acid
@<TRIPOS>ATOM
      1 C1          1.9476   14.4431   -0.4693 C.3       1 <0>        -0.1106
      2 C2          1.5601   13.4665    0.6111 C.ar      1 <0>        -0.0624
      3 C3          0.9746   13.9234    1.7776 C.ar      1 <0>        -0.1580
      4 C4          0.6183   13.0301    2.7708 C.ar      1 <0>        -0.0823
      5 C5          0.8405   11.6776    2.5972 C.ar      1 <0>        -0.1037
      6 C6          1.4324   11.2173    1.4302 C.ar      1 <0>         0.1373
      7 C7          1.7895   12.1159    0.4351 C.ar      1 <0>        -0.2098
      8 O1          1.6572    9.8879    1.2595 O.3       1 <0>        -0.2860
      9 C8          2.2649    9.4853    0.0304 C.3       1 <0>         0.0604
     10 C9          2.4370    7.9651    0.0205 C.3       1 <0>         0.0620
     11 O2          1.1519    7.3402    0.0293 O.3       1 <0>        -0.2868
     12 C10         1.1266    5.9856    0.0222 C.ar      1 <0>         0.1399
     13 C11         2.3227    5.2692    0.0074 C.ar      1 <0>        -0.1816
     14 C12         2.3443    3.9107    0.0007 C.ar      1 <0>        -0.0696
     15 C13         1.1483    3.1678    0.0077 C.ar      1 <0>        -0.0799
     16 C14         1.1640    1.7632    0.0004 C.ar      1 <0>        -0.0986
     17 C15        -0.0126    1.0758    0.0080 C.ar      1 <0>        -0.1298
     18 C16        -1.2327    1.7449    0.0174 C.ar      1 <0>        -0.1094
     19 C17        -1.2829    3.1087    0.0305 C.ar      1 <0>        -0.1049
     20 C18        -0.0944    3.8441    0.0227 C.ar      1 <0>        -0.0020
     21 C19        -0.1030    5.3102    0.0302 C.ar      1 <0>        -0.0916
     22 C20        -1.3208    6.0259    0.0447 C.2       1 <0>        -0.0430
     23 C21        -1.5189    7.0361    0.9700 C.2       1 <0>        -0.0520
     24 C22        -0.4892    7.3558    1.9124 C.1       1 <0>         0.2859
     25 N1          0.3276    7.6094    2.6601 N.1       1 <0>        -0.4375
     26 C23        -2.7840    7.7796    0.9850 C.2       1 <0>         0.4983
     27 O3         -3.6584    7.5081    0.1847 O.co2     1 <0>        -0.6235
     28 C24         0.4458   10.7037    3.6774 C.3       1 <0>        -0.1142
     29 H1          1.1115   14.5761   -1.1558 H         1 <0>         0.0698
     30 H2          2.2032   15.4017   -0.0179 H         1 <0>         0.0646
     31 H3          2.8085   14.0577   -1.0156 H         1 <0>         0.0618
     32 H4          0.7957   14.9798    1.9132 H         1 <0>         0.1190
     33 H5          0.1615   13.3894    3.6811 H         1 <0>         0.1262
     34 H6          2.2461   11.7596   -0.4764 H         1 <0>         0.1227
     35 H7          3.2404    9.9621   -0.0659 H         1 <0>         0.0798
     36 H8          1.6304    9.7846   -0.8038 H         1 <0>         0.0733
     37 H9          2.9969    7.6571    0.9035 H         1 <0>         0.0742
     38 H10         2.9799    7.6667   -0.8763 H         1 <0>         0.0816
     39 H11         3.2580    5.8092    0.0018 H         1 <0>         0.1273
     40 H12         3.2922    3.3933   -0.0104 H         1 <0>         0.1275
     41 H13         2.1036    1.2309   -0.0114 H         1 <0>         0.1235
     42 H14         0.0021   -0.0041    0.0020 H         1 <0>         0.1199
     43 H15        -2.1517    1.1776    0.0191 H         1 <0>         0.1240
     44 H16        -2.2358    3.6169    0.0423 H         1 <0>         0.1355
     45 H17        -2.0973    5.7847   -0.6661 H         1 <0>         0.1496
     46 H18         1.2782   10.5704    4.3683 H         1 <0>         0.0591
     47 H19        -0.4171   11.0916    4.2187 H         1 <0>         0.0607
     48 H20         0.1907    9.7447    3.2265 H         1 <0>         0.0934
     49 O4         -2.9770    8.7640    1.8865 O.co2     1 <0>        -0.7403
@<TRIPOS>BOND
     1    1    2 1
     2    1   29 1
     3    1   30 1
     4    1   31 1
     5    2    7 ar
     6    2    3 ar
     7    3    4 ar
     8    3   32 1
     9    4    5 ar
    10    4   33 1
    11    5    6 ar
    12    5   28 1
    13    6    7 ar
    14    6    8 1
    15    7   34 1
    16    8    9 1
    17    9   10 1
    18    9   35 1
    19    9   36 1
    20   10   11 1
    21   10   37 1
    22   10   38 1
    23   11   12 1
    24   12   21 ar
    25   12   13 ar
    26   13   14 ar
    27   13   39 1
    28   14   15 ar
    29   14   40 1
    30   15   20 ar
    31   15   16 ar
    32   16   17 ar
    33   16   41 1
    34   17   18 ar
    35   17   42 1
    36   18   19 ar
    37   18   43 1
    38   19   20 ar
    39   19   44 1
    40   20   21 ar
    41   21   22 1
    42   22   23 2
    43   22   45 1
    44   23   24 1
    45   23   26 1
    46   24   25 3
    47   26   27 2
    48   26   49 1
    49   28   46 1
    50   28   47 1
    51   28   48 1
@<TRIPOS>MOLECULE
ZINC16956498
   50    53     0     0     0
SMALL
USER_CHARGES
(5Z)-5-[[3-(3-butoxyphenyl)-1-phenyl-pyrazol-4-yl]methylene]-2-thioxo-thiazolidin-4-one
@<TRIPOS>ATOM
      1 C1          8.0770    8.3475    2.8483 C.3       1 <0>        -0.1536
      2 C2          6.7829    8.1761    2.0502 C.3       1 <0>        -0.1224
      3 C3          6.3446    6.7110    2.0980 C.3       1 <0>        -0.1210
      4 C4          5.0506    6.5395    1.2999 C.3       1 <0>         0.0566
      5 O1          4.6412    5.1711    1.3445 O.3       1 <0>        -0.3148
      6 C5          3.5008    4.8463    0.6804 C.ar      1 <0>         0.1278
      7 C6          2.7911    5.8263   -0.0006 C.ar      1 <0>        -0.1987
      8 C7          1.6307    5.5009   -0.6775 C.ar      1 <0>        -0.0760
      9 C8          1.1733    4.1984   -0.6847 C.ar      1 <0>        -0.1289
     10 C9          1.8772    3.2090    0.0006 C.ar      1 <0>         0.0258
     11 C10         3.0471    3.5379    0.6828 C.ar      1 <0>        -0.1206
     12 C11         1.3860    1.8106   -0.0015 C.2       1 <0>         0.1465
     13 C12        -0.0167    1.3784    0.0096 C.2       1 <0>        -0.1948
     14 C13         0.0021   -0.0041    0.0020 C.2       1 <0>         0.0885
     15 N1          1.2897   -0.3979   -0.0124 N.pl3     1 <0>        -0.3130
     16 N2          2.1241    0.7233   -0.0143 N.2       1 <0>        -0.2726
     17 C14         1.7263   -1.7287   -0.0233 C.ar      1 <0>         0.1582
     18 C15         0.8015   -2.7646   -0.0138 C.ar      1 <0>        -0.1375
     19 C16         1.2352   -4.0758   -0.0284 C.ar      1 <0>        -0.0894
     20 C17         2.5889   -4.3576   -0.0434 C.ar      1 <0>        -0.1306
     21 C18         3.5125   -3.3284   -0.0481 C.ar      1 <0>        -0.0983
     22 C19         3.0851   -2.0151   -0.0378 C.ar      1 <0>        -0.1199
     23 C20        -1.2026    2.2415    0.0202 C.2       1 <0>         0.0435
     24 C21        -2.4442    1.6899    0.0239 C.2       1 <0>        -0.2096
     25 C22        -3.7640    2.3465    0.0342 C.2       1 <0>         0.5316
     26 O2         -3.8744    3.5589    0.0409 O.3       1 <0>        -0.5031
     27 N3         -4.8220    1.5533    0.0352 N.2       1 <0>        -0.6463
     28 C23        -4.6955    0.2105    0.0277 C.2       1 <0>         0.3947
     29 S1         -5.9312   -0.9744    0.0282 S.2       1 <0>        -0.5669
     30 S2         -2.9264   -0.0314    0.0097 S.3       1 <0>        -0.1832
     31 H1          8.3922    9.4008    2.8140 H         1 <0>         0.0568
     32 H2          8.8637    7.7149    2.4114 H         1 <0>         0.0560
     33 H3          7.9054    8.0500    3.8933 H         1 <0>         0.0563
     34 H4          5.9962    8.8087    2.4871 H         1 <0>         0.0656
     35 H5          6.9544    8.4737    1.0052 H         1 <0>         0.0651
     36 H6          7.1314    6.0785    1.6611 H         1 <0>         0.0741
     37 H7          6.1730    6.4135    3.1430 H         1 <0>         0.0746
     38 H8          4.2638    7.1720    1.7368 H         1 <0>         0.0635
     39 H9          5.2221    6.8370    0.2549 H         1 <0>         0.0627
     40 H10         3.1471    6.8459   -0.0018 H         1 <0>         0.1291
     41 H11         1.0825    6.2670   -1.2056 H         1 <0>         0.1330
     42 H12         0.2687    3.9465   -1.2183 H         1 <0>         0.1353
     43 H13         3.5981    2.7747    1.2122 H         1 <0>         0.1349
     44 H14        -0.8617   -0.6523    0.0065 H         1 <0>         0.1979
     45 H15        -0.2559   -2.5451    0.0017 H         1 <0>         0.1355
     46 H16         0.5163   -4.8818   -0.0245 H         1 <0>         0.1353
     47 H17         2.9256   -5.3838   -0.0511 H         1 <0>         0.1279
     48 H18         4.5690   -3.5518   -0.0594 H         1 <0>         0.1306
     49 H19         3.8069   -1.2118   -0.0408 H         1 <0>         0.1374
     50 H20        -1.0867    3.3354    0.0252 H         1 <0>         0.1562
@<TRIPOS>BOND
     1    1    2 1
     2    1   31 1
     3    1   32 1
     4    1   33 1
     5    2    3 1
     6    2   34 1
     7    2   35 1
     8    3    4 1
     9    3   36 1
    10    3   37 1
    11    4    5 1
    12    4   38 1
    13    4   39 1
    14    5    6 1
    15    6   11 ar
    16    6    7 ar
    17    7    8 ar
    18    7   40 1
    19    8    9 ar
    20    8   41 1
    21    9   10 ar
    22    9   42 1
    23   10   11 ar
    24   10   12 1
    25   11   43 1
    26   12   16 2
    27   12   13 1
    28   13   14 2
    29   13   23 1
    30   14   15 1
    31   14   44 1
    32   15   16 1
    33   15   17 1
    34   17   22 ar
    35   17   18 ar
    36   18   19 ar
    37   18   45 1
    38   19   20 ar
    39   19   46 1
    40   20   21 ar
    41   20   47 1
    42   21   22 ar
    43   21   48 1
    44   22   49 1
    45   23   24 2
    46   23   50 1
    47   24   30 1
    48   24   25 1
    49   25   26 1
    50   25   27 2
    51   27   28 1
    52   28   29 2
    53   28   30 1
@<TRIPOS>MOLECULE
ZINC33751105
   51    53     0     0     0
SMALL
USER_CHARGES
(5R)-5-[(R)-(4-bromophenyl)-(o-tolylmethoxy)methyl]-3-propyl-4H-isoxazole-5-carboxylic acid
@<TRIPOS>ATOM
      1 C1         -0.0187    1.5258    0.0104 C.3       1 <0>        -0.1516
      2 C2          0.0021   -0.0041    0.0020 C.3       1 <0>        -0.1194
      3 C3          0.7182   -0.4975   -1.2568 C.3       1 <0>        -0.0465
      4 C4          0.7387   -2.0043   -1.2651 C.2       1 <0>         0.0752
      5 N1          0.2444   -2.7621   -0.3647 N.2       1 <0>        -0.2869
      6 O1          0.4162   -4.1382   -0.6398 O.3       1 <0>        -0.1561
      7 C5          0.7422   -4.2651   -2.0393 C.3       1 <0>         0.0510
      8 C6          1.3558   -2.8767   -2.3416 C.3       1 <0>        -0.1244
      9 C7         -0.5163   -4.5027   -2.8764 C.3       1 <0>         0.1416
     10 H1         -0.3105   -4.4171   -3.9536 H         1 <0>         0.0820
     11 C8         -1.0840   -5.8613   -2.5554 C.ar      1 <0>        -0.0845
     12 C9         -1.9284   -6.0190   -1.4723 C.ar      1 <0>        -0.0733
     13 C10        -2.4531   -7.2640   -1.1804 C.ar      1 <0>        -0.1070
     14 C11        -2.1248   -8.3542   -1.9660 C.ar      1 <0>        -0.0856
     15 C12        -1.2757   -8.1969   -3.0465 C.ar      1 <0>        -0.1037
     16 C13        -0.7556   -6.9505   -3.3408 C.ar      1 <0>        -0.0693
     17 Br1        -2.8372  -10.0589   -1.5632 Br        1 <0>        -0.0714
     18 O2         -1.4861   -3.4977   -2.5741 O.3       1 <0>        -0.3672
     19 C14        -2.3520   -3.1787   -3.6653 C.3       1 <0>         0.0987
     20 C15        -3.3287   -2.1140   -3.2369 C.ar      1 <0>        -0.0816
     21 C16        -3.2851   -1.6139   -1.9486 C.ar      1 <0>        -0.0869
     22 C17        -4.1777   -0.6339   -1.5572 C.ar      1 <0>        -0.1265
     23 C18        -5.1209   -0.1612   -2.4507 C.ar      1 <0>        -0.1215
     24 C19        -5.1678   -0.6648   -3.7370 C.ar      1 <0>        -0.1240
     25 C20        -4.2715   -1.6413   -4.1301 C.ar      1 <0>        -0.0838
     26 C21        -4.3230   -2.1908   -5.5324 C.3       1 <0>        -0.1188
     27 C22         1.7512   -5.3620   -2.2626 C.2       1 <0>         0.4874
     28 O3          1.7780   -5.9528   -3.3162 O.co2     1 <0>        -0.6194
     29 O4          2.6201   -5.6826   -1.2911 O.co2     1 <0>        -0.7294
     30 H2         -0.5336    1.8805    0.9154 H         1 <0>         0.0538
     31 H3         -0.5508    1.8901   -0.8808 H         1 <0>         0.0530
     32 H4          1.0133    1.9066    0.0026 H         1 <0>         0.0529
     33 H5          0.5342   -0.3684    0.8932 H         1 <0>         0.0681
     34 H6         -1.0299   -0.3849    0.0099 H         1 <0>         0.0689
     35 H7          0.1861   -0.1331   -2.1479 H         1 <0>         0.0861
     36 H8          1.7502   -0.1167   -1.2647 H         1 <0>         0.0859
     37 H9          1.0732   -2.4914   -3.3324 H         1 <0>         0.0876
     38 H10         2.4512   -2.8629   -2.2416 H         1 <0>         0.0975
     39 H11        -2.1814   -5.1686   -0.8566 H         1 <0>         0.1333
     40 H12        -3.1158   -7.3864   -0.3364 H         1 <0>         0.1260
     41 H13        -1.0194   -9.0477   -3.6603 H         1 <0>         0.1276
     42 H14        -0.0923   -6.8277   -4.1842 H         1 <0>         0.1442
     43 H15        -1.7544   -2.8090   -4.5116 H         1 <0>         0.0607
     44 H16        -2.9031   -4.0800   -3.9717 H         1 <0>         0.0621
     45 H17        -2.5512   -1.9864   -1.2493 H         1 <0>         0.1361
     46 H18        -4.1413   -0.2407   -0.5520 H         1 <0>         0.1192
     47 H19        -5.8212    0.6014   -2.1435 H         1 <0>         0.1173
     48 H20        -5.9048   -0.2957   -4.4349 H         1 <0>         0.1187
     49 H21        -5.1320   -1.6966   -6.0904 H         1 <0>         0.0646
     50 H22        -4.5118   -3.2738   -5.4951 H         1 <0>         0.0699
     51 H23        -3.3629   -2.0030   -6.0353 H         1 <0>         0.0696
@<TRIPOS>BOND
     1    1    2 1
     2    1   30 1
     3    1   31 1
     4    1   32 1
     5    2    3 1
     6    2   33 1
     7    2   34 1
     8    3    4 1
     9    3   35 1
    10    3   36 1
    11    4    8 1
    12    4    5 2
    13    5    6 1
    14    6    7 1
    15    7    8 1
    16    7    9 1
    17    7   27 1
    18    8   37 1
    19    8   38 1
    20    9   10 1
    21    9   11 1
    22    9   18 1
    23   11   16 ar
    24   11   12 ar
    25   12   13 ar
    26   12   39 1
    27   13   14 ar
    28   13   40 1
    29   14   15 ar
    30   14   17 1
    31   15   16 ar
    32   15   41 1
    33   16   42 1
    34   18   19 1
    35   19   20 1
    36   19   43 1
    37   19   44 1
    38   20   25 ar
    39   20   21 ar
    40   21   22 ar
    41   21   45 1
    42   22   23 ar
    43   22   46 1
    44   23   24 ar
    45   23   47 1
    46   24   25 ar
    47   24   48 1
    48   25   26 1
    49   26   49 1
    50   26   50 1
    51   26   51 1
    52   27   28 2
    53   27   29 1
@<TRIPOS>MOLECULE
ZINC40029959
   57    60     0     0     0
SMALL
USER_CHARGES

@<TRIPOS>ATOM
      1 C1          1.6617    1.8709    0.6673 C.3       1 <0>        -0.1090
      2 C2          1.2783    0.4247    0.4872 C.ar      1 <0>        -0.0994
      3 C3          0.9735   -0.0579   -0.7718 C.ar      1 <0>        -0.1229
      4 C4          0.6218   -1.3845   -0.9370 C.ar      1 <0>        -0.1117
      5 C5          0.5753   -2.2286    0.1567 C.ar      1 <0>        -0.0756
      6 C6          0.8810   -1.7462    1.4156 C.ar      1 <0>        -0.0865
      7 C7          1.2369   -0.4206    1.5801 C.ar      1 <0>        -0.1215
      8 C8          0.1909   -3.6746   -0.0232 C.3       1 <0>         0.2629
      9 H1         -0.2777   -3.8191   -0.9967 H         1 <0>         0.0698
     10 C9          1.4117   -4.5560    0.1015 C.2       1 <0>        -0.4994
     11 C10         1.1893   -5.3856    1.1479 C.2       1 <0>         0.2650
     12 C11        -0.1379   -5.0901    1.7280 C.2       1 <0>         0.5122
     13 O1         -0.6262   -5.6650    2.6804 O.2       1 <0>        -0.5340
     14 N1         -0.7261   -4.0896    1.0448 N.am      1 <0>        -0.6093
     15 C12        -2.0462   -3.5164    1.3186 C.3       1 <0>         0.1620
     16 C13        -3.0921   -4.2670    0.5351 C.2       1 <0>        -0.1674
     17 C14        -4.1177   -4.7982    1.1532 C.2       1 <0>        -0.1803
     18 O2          2.0455   -6.3341    1.5921 O.3       1 <0>        -0.6521
     19 C15         2.6064   -4.5202   -0.7471 C.2       1 <0>         0.5024
     20 O3          3.6836   -4.2188   -0.2687 O.2       1 <0>        -0.4685
     21 C16         2.5022   -4.8502   -2.1847 C.ar      1 <0>        -0.0958
     22 C17         1.2916   -5.3037   -2.7139 C.ar      1 <0>        -0.1005
     23 C18         1.1981   -5.6102   -4.0555 C.ar      1 <0>        -0.0982
     24 C19         2.2998   -5.4699   -4.8800 C.ar      1 <0>        -0.1957
     25 C20         3.5075   -5.0203   -4.3631 C.ar      1 <0>         0.1102
     26 C21         3.6114   -4.7042   -3.0190 C.ar      1 <0>        -0.1042
     27 O4          4.5868   -4.8849   -5.1779 O.3       1 <0>        -0.3093
     28 C22         4.4067   -5.2232   -6.5546 C.3       1 <0>         0.1014
     29 C23         5.7009   -5.0119   -7.2972 C.ar      1 <0>        -0.0931
     30 C24         5.9773   -3.7839   -7.8687 C.ar      1 <0>        -0.0953
     31 C25         7.1644   -3.5901   -8.5499 C.ar      1 <0>        -0.1245
     32 C26         8.0754   -4.6241   -8.6592 C.ar      1 <0>        -0.1127
     33 C27         7.7993   -5.8518   -8.0870 C.ar      1 <0>        -0.1240
     34 C28         6.6141   -6.0443   -7.4021 C.ar      1 <0>        -0.0949
     35 H2          2.7413    1.9767    0.5602 H         1 <0>         0.0657
     36 H3          1.1606    2.4764   -0.0880 H         1 <0>         0.0609
     37 H4          1.3605    2.2058    1.6599 H         1 <0>         0.0613
     38 H5          1.0098    0.6015   -1.6263 H         1 <0>         0.1153
     39 H6          0.3830   -1.7614   -1.9205 H         1 <0>         0.1182
     40 H7          0.8444   -2.4056    2.2701 H         1 <0>         0.1164
     41 H8          1.4793   -0.0446    2.5631 H         1 <0>         0.1156
     42 H9         -2.2632   -3.5964    2.3838 H         1 <0>         0.0807
     43 H10        -2.0549   -2.4671    1.0238 H         1 <0>         0.0830
     44 H11        -2.9961   -4.3670   -0.5360 H         1 <0>         0.1093
     45 H12        -4.2137   -4.6983    2.2243 H         1 <0>         0.0966
     46 H13        -4.8672   -5.3361    0.5917 H         1 <0>         0.0959
     47 H14         0.4295   -5.4147   -2.0730 H         1 <0>         0.1359
     48 H15         0.2617   -5.9611   -4.4635 H         1 <0>         0.1251
     49 H16         2.2205   -5.7115   -5.9296 H         1 <0>         0.1238
     50 H17         4.5489   -4.3498   -2.6167 H         1 <0>         0.1363
     51 H18         4.1076   -6.2682   -6.6359 H         1 <0>         0.0698
     52 H19         3.6324   -4.5890   -6.9863 H         1 <0>         0.0696
     53 H20         5.2656   -2.9760   -7.7832 H         1 <0>         0.1245
     54 H21         7.3801   -2.6309   -8.9969 H         1 <0>         0.1241
     55 H22         9.0025   -4.4728   -9.1920 H         1 <0>         0.1226
     56 H23         8.5108   -6.6597   -8.1727 H         1 <0>         0.1243
     57 H24         6.4001   -7.0024   -6.9519 H         1 <0>         0.1250
@<TRIPOS>BOND
     1    1    2 1
     2    1   35 1
     3    1   36 1
     4    1   37 1
     5    2    7 ar
     6    2    3 ar
     7    3    4 ar
     8    3   38 1
     9    4    5 ar
    10    4   39 1
    11    5    6 ar
    12    5    8 1
    13    6    7 ar
    14    6   40 1
    15    7   41 1
    16    8    9 1
    17    8   14 1
    18    8   10 1
    19   10   11 2
    20   10   19 1
    21   11   12 1
    22   11   18 1
    23   12   13 2
    24   12   14 am
    25   14   15 1
    26   15   16 1
    27   15   42 1
    28   15   43 1
    29   16   17 2
    30   16   44 1
    31   17   45 1
    32   17   46 1
    33   19   20 2
    34   19   21 1
    35   21   26 ar
    36   21   22 ar
    37   22   23 ar
    38   22   47 1
    39   23   24 ar
    40   23   48 1
    41   24   25 ar
    42   24   49 1
    43   25   26 ar
    44   25   27 1
    45   26   50 1
    46   27   28 1
    47   28   29 1
    48   28   51 1
    49   28   52 1
    50   29   34 ar
    51   29   30 ar
    52   30   31 ar
    53   30   53 1
    54   31   32 ar
    55   31   54 1
    56   32   33 ar
    57   32   55 1
    58   33   34 ar
    59   33   56 1
    60   34   57 1
@<TRIPOS>MOLECULE
ZINC59364703
   45    47     0     0     0
SMALL
USER_CHARGES

@<TRIPOS>ATOM
      1 C1         -0.0187    1.5258    0.0104 C.3       1 <0>        -0.1510
      2 C2          0.0021   -0.0041    0.0020 C.3       1 <0>         0.0551
      3 O1          0.6709   -0.4649   -1.1737 O.3       1 <0>        -0.3202
      4 C3          0.7768   -1.8108   -1.3362 C.ar      1 <0>         0.0965
      5 C4          0.2411   -2.6668   -0.3836 C.ar      1 <0>        -0.1898
      6 C5          0.3462   -4.0323   -0.5434 C.ar      1 <0>        -0.0836
      7 C6          0.9930   -4.5543   -1.6673 C.ar      1 <0>         0.0938
      8 C7          1.5303   -3.6879   -2.6238 C.ar      1 <0>        -0.1255
      9 C8          1.4152   -2.3241   -2.4570 C.ar      1 <0>        -0.1260
     10 N1          1.1002   -5.9066   -1.8302 N.2       1 <0>        -0.4852
     11 C9          0.8454   -6.4526   -3.0058 C.2       1 <0>         0.3173
     12 C10         0.8928   -7.8702   -3.3948 C.2       1 <0>        -0.4228
     13 C11         0.5764   -8.1608   -4.6997 C.2       1 <0>         0.3495
     14 O2          0.5935   -9.4385   -5.1453 O.3       1 <0>        -0.5806
     15 C12         0.2331   -7.1024   -5.5656 C.2       1 <0>        -0.1221
     16 C13        -0.1148   -7.1684   -6.8989 C.2       1 <0>         0.0197
     17 C14        -0.4285   -5.9884   -7.6052 C.2       1 <0>        -0.1590
     18 C15        -0.8055   -5.8360   -8.9381 C.2       1 <0>        -0.1412
     19 C16        -1.0487   -4.5464   -9.3422 C.2       1 <0>        -0.1694
     20 C17        -0.9108   -3.5363   -8.4466 C.2       1 <0>        -0.2758
     21 S1         -0.4539   -4.3034   -7.0236 S.3       1 <0>         0.2283
     22 S2          0.3482   -5.6590   -4.5248 S.3       1 <0>        -0.1230
     23 C18         1.2586   -8.9165   -2.4416 C.2       1 <0>         0.5383
     24 O3          1.2880  -10.0799   -2.7968 O.2       1 <0>        -0.5312
     25 O4          1.5636   -8.5922   -1.1679 O.3       1 <0>        -0.3415
     26 C19         1.9119   -9.6652   -0.2908 C.3       1 <0>         0.0632
     27 C20         2.2230   -9.1071    1.0994 C.3       1 <0>        -0.1437
     28 H1          1.0039    1.9031    0.0027 H         1 <0>         0.0644
     29 H2         -0.5459    1.8868   -0.8726 H         1 <0>         0.0647
     30 H3         -0.5289    1.8773    0.9072 H         1 <0>         0.0748
     31 H4          0.5293   -0.3651    0.8851 H         1 <0>         0.0588
     32 H5         -1.0205   -0.3814    0.0098 H         1 <0>         0.0591
     33 H6         -0.2584   -2.2625    0.4844 H         1 <0>         0.1242
     34 H7         -0.0703   -4.6974    0.1986 H         1 <0>         0.1270
     35 H8          2.0309   -4.0862   -3.4939 H         1 <0>         0.1331
     36 H9          1.8264   -1.6539   -3.1974 H         1 <0>         0.1264
     37 H10        -0.1469   -8.1235   -7.4020 H         1 <0>         0.1614
     38 H11        -0.8998   -6.6769   -9.6093 H         1 <0>         0.1401
     39 H12        -1.3456   -4.3386  -10.3596 H         1 <0>         0.1250
     40 H13        -1.0647   -2.4799   -8.6101 H         1 <0>         0.1774
     41 H14         1.0785  -10.3645   -0.2234 H         1 <0>         0.0525
     42 H15         2.7893  -10.1821   -0.6795 H         1 <0>         0.0525
     43 H16         3.0564   -8.4078    1.0320 H         1 <0>         0.0616
     44 H17         1.3456   -8.5903    1.4881 H         1 <0>         0.0614
     45 H18         2.4887   -9.9256    1.7684 H         1 <0>         0.0656
@<TRIPOS>BOND
     1    1    2 1
     2    1   28 1
     3    1   29 1
     4    1   30 1
     5    2    3 1
     6    2   31 1
     7    2   32 1
     8    3    4 1
     9    4    9 ar
    10    4    5 ar
    11    5    6 ar
    12    5   33 1
    13    6    7 ar
    14    6   34 1
    15    7    8 ar
    16    7   10 1
    17    8    9 ar
    18    8   35 1
    19    9   36 1
    20   10   11 2
    21   11   22 1
    22   11   12 1
    23   12   13 2
    24   12   23 1
    25   13   14 1
    26   13   15 1
    27   15   16 2
    28   15   22 1
    29   16   17 1
    30   16   37 1
    31   17   21 1
    32   17   18 2
    33   18   19 1
    34   18   38 1
    35   19   20 2
    36   19   39 1
    37   20   21 1
    38   20   40 1
    39   23   24 2
    40   23   25 1
    41   25   26 1
    42   26   27 1
    43   26   41 1
    44   26   42 1
    45   27   43 1
    46   27   44 1
    47   27   45 1
@<TRIPOS>MOLECULE
ZINC11861494
   51    53     0     0     0
SMALL
USER_CHARGES
(2S)-3-[2-[2-(3,5-dimethylphenoxy)ethoxy]phenyl]-2-(2-thienyl)propanoic acid
@<TRIPOS>ATOM
      1 C1          4.6139    7.4752   -4.6277 C.3       1 <0>        -0.1156
      2 C2          3.5612    6.5287   -5.1443 C.ar      1 <0>        -0.0441
      3 C3          3.8517    5.6799   -6.1964 C.ar      1 <0>        -0.1637
      4 C4          2.8883    4.8097   -6.6720 C.ar      1 <0>        -0.0444
      5 C5          1.6324    4.7866   -6.0971 C.ar      1 <0>        -0.1588
      6 C6          1.3382    5.6376   -5.0416 C.ar      1 <0>         0.1439
      7 C7          2.3048    6.5138   -4.5700 C.ar      1 <0>        -0.2177
      8 O1          0.1034    5.6167   -4.4743 O.3       1 <0>        -0.3032
      9 C8         -0.1285    6.5204   -3.3919 C.3       1 <0>         0.0628
     10 C9         -1.5630    6.3533   -2.8865 C.3       1 <0>         0.0628
     11 O2         -1.7226    5.0471   -2.3293 O.3       1 <0>        -0.3048
     12 C10        -2.9477    4.7342   -1.8314 C.ar      1 <0>         0.1251
     13 C11        -3.9766    5.6638   -1.8821 C.ar      1 <0>        -0.2240
     14 C12        -5.2196    5.3450   -1.3711 C.ar      1 <0>        -0.0907
     15 C13        -5.4402    4.0993   -0.8127 C.ar      1 <0>        -0.1600
     16 C14        -4.4180    3.1698   -0.7650 C.ar      1 <0>        -0.0022
     17 C15        -3.1730    3.4834   -1.2756 C.ar      1 <0>        -0.0844
     18 C16        -2.0592    2.4698   -1.2232 C.3       1 <0>        -0.0428
     19 C17        -1.2055    2.7140    0.0228 C.3       1 <0>        -0.0542
     20 H1         -0.8546    3.7460    0.0262 H         1 <0>         0.0896
     21 C18        -0.0221    1.7810    0.0118 C.2       1 <0>        -0.0588
     22 C19         1.3000    2.0794    0.0008 C.2       1 <0>        -0.2015
     23 C20         2.2199    1.0478   -0.0135 C.2       1 <0>        -0.1441
     24 C21         1.7727   -0.2318   -0.0161 C.2       1 <0>        -0.2212
     25 S1          0.0021   -0.0041    0.0020 S.3       1 <0>         0.0598
     26 C22        -2.0333    2.4609    1.2564 C.2       1 <0>         0.4663
     27 O3         -1.6969    1.6101    2.0456 O.co2     1 <0>        -0.6264
     28 C23         3.2087    3.8852   -7.8182 C.3       1 <0>        -0.1144
     29 H2          4.5504    8.4195   -5.1685 H         1 <0>         0.0709
     30 H3          4.4520    7.6537   -3.5647 H         1 <0>         0.0667
     31 H4          5.6009    7.0371   -4.7764 H         1 <0>         0.0675
     32 H5          4.8330    5.6964   -6.6472 H         1 <0>         0.1205
     33 H6          0.8803    4.1064   -6.4687 H         1 <0>         0.1296
     34 H7          2.0768    7.1804   -3.7514 H         1 <0>         0.1261
     35 H8          0.0187    7.5443   -3.7355 H         1 <0>         0.0805
     36 H9          0.5692    6.3048   -2.5827 H         1 <0>         0.0751
     37 H10        -2.2579    6.4817   -3.7164 H         1 <0>         0.0699
     38 H11        -1.7682    7.1022   -2.1216 H         1 <0>         0.0817
     39 H12        -3.8047    6.6370   -2.3177 H         1 <0>         0.1155
     40 H13        -6.0198    6.0694   -1.4072 H         1 <0>         0.1128
     41 H14        -6.4126    3.8522   -0.4130 H         1 <0>         0.1139
     42 H15        -4.5927    2.1975   -0.3284 H         1 <0>         0.1219
     43 H16        -1.4380    2.5660   -2.1137 H         1 <0>         0.0687
     44 H17        -2.4827    1.4663   -1.1824 H         1 <0>         0.0635
     45 H18         1.6298    3.1078    0.0028 H         1 <0>         0.1213
     46 H19         3.2792    1.2581   -0.0221 H         1 <0>         0.1199
     47 H20         2.3402   -1.1506   -0.0268 H         1 <0>         0.1744
     48 H21         2.9680    4.3777   -8.7603 H         1 <0>         0.0716
     49 H22         4.2698    3.6367   -7.7988 H         1 <0>         0.0676
     50 H23         2.6200    2.9727   -7.7244 H         1 <0>         0.0691
     51 O4         -3.1445    3.1806    1.4784 O.co2     1 <0>        -0.7422
@<TRIPOS>BOND
     1    1    2 1
     2    1   29 1
     3    1   30 1
     4    1   31 1
     5    2    7 ar
     6    2    3 ar
     7    3    4 ar
     8    3   32 1
     9    4    5 ar
    10    4   28 1
    11    5    6 ar
    12    5   33 1
    13    6    7 ar
    14    6    8 1
    15    7   34 1
    16    8    9 1
    17    9   10 1
    18    9   35 1
    19    9   36 1
    20   10   11 1
    21   10   37 1
    22   10   38 1
    23   11   12 1
    24   12   17 ar
    25   12   13 ar
    26   13   14 ar
    27   13   39 1
    28   14   15 ar
    29   14   40 1
    30   15   16 ar
    31   15   41 1
    32   16   17 ar
    33   16   42 1
    34   17   18 1
    35   18   19 1
    36   18   43 1
    37   18   44 1
    38   19   20 1
    39   19   21 1
    40   19   26 1
    41   21   25 1
    42   21   22 2
    43   22   23 1
    44   22   45 1
    45   23   24 2
    46   23   46 1
    47   24   25 1
    48   24   47 1
    49   26   27 2
    50   26   51 1
    51   28   48 1
    52   28   49 1
    53   28   50 1
@<TRIPOS>MOLECULE
ZINC16159312
   48    50     0     0     0
SMALL
USER_CHARGES
(2S)-2-(9H-fluoren-9-ylmethoxycarbonylamino)-5,5,5-trifluoro-4-(trifluoromethyl)pentanoic acid
@<TRIPOS>ATOM
      1 C1         -0.3832    1.0828    0.6524 C.ar      1 <0>        -0.1201
      2 C2         -1.5996    1.7273    0.5160 C.ar      1 <0>        -0.1136
      3 C3         -1.6608    3.1089    0.5550 C.ar      1 <0>        -0.0868
      4 C4         -0.5074    3.8466    0.7192 C.ar      1 <0>        -0.0781
      5 C5          0.7221    3.2074    0.8516 C.ar      1 <0>        -0.0604
      6 C6          0.7755    1.8126    0.8167 C.ar      1 <0>        -0.0983
      7 C7          1.7921    4.2228    1.0129 C.ar      1 <0>        -0.0492
      8 C8          3.1719    4.0866    1.1778 C.ar      1 <0>        -0.0986
      9 C9          3.9640    5.2081    1.3084 C.ar      1 <0>        -0.1170
     10 C10         3.3971    6.4696    1.2763 C.ar      1 <0>        -0.1131
     11 C11         2.0308    6.6121    1.1125 C.ar      1 <0>        -0.0935
     12 C12         1.2311    5.4964    0.9814 C.ar      1 <0>        -0.0839
     13 C13        -0.2573    5.3330    0.7937 C.3       1 <0>        -0.0101
     14 C14        -0.7015    6.0077   -0.5057 C.3       1 <0>         0.1091
     15 O1         -2.1482    5.9451   -0.6135 O.3       1 <0>        -0.3723
     16 C15        -2.7041    6.4981   -1.7079 C.2       1 <0>         0.6545
     17 O2         -1.9996    7.0188   -2.5500 O.2       1 <0>        -0.5653
     18 N1         -4.0419    6.4742   -1.8695 N.am      1 <0>        -0.6842
     19 C16        -4.6468    7.0760   -3.0604 C.3       1 <0>         0.1017
     20 H1         -3.9668    6.9709   -3.9058 H         1 <0>         0.1177
     21 C17        -5.9658    6.3678   -3.3757 C.3       1 <0>        -0.1145
     22 C18        -5.6917    4.8959   -3.6910 C.3       1 <0>        -0.1938
     23 C19        -7.0195    4.1506   -3.8410 C.3       1 <0>         0.4643
     24 F1         -7.7875    4.7621   -4.8376 F         1 <0>        -0.1652
     25 F2         -6.7701    2.8202   -4.1947 F         1 <0>        -0.1718
     26 F3         -7.7148    4.1880   -2.6276 F         1 <0>        -0.1669
     27 C20        -4.8989    4.7929   -4.9956 C.3       1 <0>         0.4604
     28 F4         -3.6285    5.3499   -4.8144 F         1 <0>        -0.1535
     29 F5         -4.7709    3.4478   -5.3585 F         1 <0>        -0.1748
     30 F6         -5.5725    5.4866   -6.0066 F         1 <0>        -0.1630
     31 C21        -4.9098    8.5379   -2.8060 C.2       1 <0>         0.4604
     32 O3         -4.6216    9.0269   -1.7394 O.co2     1 <0>        -0.6193
     33 H2         -0.3401    0.0040    0.6257 H         1 <0>         0.1248
     34 H3         -2.5033    1.1511    0.3827 H         1 <0>         0.1271
     35 H4         -2.6120    3.6101    0.4527 H         1 <0>         0.1312
     36 H5          1.7236    1.3055    0.9188 H         1 <0>         0.1208
     37 H6          3.6184    3.1036    1.2042 H         1 <0>         0.1225
     38 H7          5.0311    5.1010    1.4361 H         1 <0>         0.1261
     39 H8          4.0221    7.3444    1.3788 H         1 <0>         0.1285
     40 H9          1.5901    7.5978    1.0877 H         1 <0>         0.1291
     41 H10        -0.7918    5.7614    1.6415 H         1 <0>         0.1153
     42 H11        -0.3822    7.0498   -0.5015 H         1 <0>         0.0784
     43 H12        -0.2514    5.4931   -1.3546 H         1 <0>         0.0727
     44 H13        -4.6043    6.0586   -1.1973 H         1 <0>         0.3984
     45 H14        -6.6304    6.4372   -2.5145 H         1 <0>         0.1027
     46 H15        -6.4362    6.8423   -4.2369 H         1 <0>         0.1217
     47 H16        -5.1153    4.4517   -2.8795 H         1 <0>         0.1540
     48 O4         -5.4643    9.2967   -3.7644 O.co2     1 <0>        -0.7543
@<TRIPOS>BOND
     1    1    6 ar
     2    1    2 ar
     3    1   33 1
     4    2    3 ar
     5    2   34 1
     6    3    4 ar
     7    3   35 1
     8    4   13 1
     9    4    5 ar
    10    5    6 ar
    11    5    7 1
    12    6   36 1
    13    7   12 ar
    14    7    8 ar
    15    8    9 ar
    16    8   37 1
    17    9   10 ar
    18    9   38 1
    19   10   11 ar
    20   10   39 1
    21   11   12 ar
    22   11   40 1
    23   12   13 1
    24   13   14 1
    25   13   41 1
    26   14   15 1
    27   14   42 1
    28   14   43 1
    29   15   16 1
    30   16   17 2
    31   16   18 am
    32   18   19 1
    33   18   44 1
    34   19   20 1
    35   19   21 1
    36   19   31 1
    37   21   22 1
    38   21   45 1
    39   21   46 1
    40   22   23 1
    41   22   27 1
    42   22   47 1
    43   23   24 1
    44   23   25 1
    45   23   26 1
    46   27   28 1
    47   27   29 1
    48   27   30 1
    49   31   32 2
    50   31   48 1
@<TRIPOS>MOLECULE
ZINC22054953
   77    80     0     0     0
SMALL
USER_CHARGES

@<TRIPOS>ATOM
      1 C1          0.6315   -0.3249    1.3592 C.3       1 <0>        -0.1509
      2 C2          0.0021   -0.0041    0.0020 C.3       1 <0>        -0.0815
      3 H1         -0.0951    1.0761   -0.1072 H         1 <0>         0.0699
      4 C3          0.8924   -0.5516   -1.1153 C.3       1 <0>        -0.1298
      5 C4          2.2770    0.0934   -1.0265 C.3       1 <0>        -0.1232
      6 C5          3.1673   -0.4541   -2.1438 C.3       1 <0>        -0.1156
      7 C6          4.5519    0.1909   -2.0550 C.3       1 <0>        -0.0975
      8 C7          5.2302   -0.2350   -0.7514 C.3       1 <0>        -0.1480
      9 C8          5.4023   -0.2611   -3.2438 C.3       1 <0>        -0.1493
     10 C9         -1.3813   -0.6519   -0.0845 C.3       1 <0>        -0.0725
     11 H2         -1.9998   -0.3339    0.7548 H         1 <0>         0.0671
     12 C10        -1.2511   -2.1953   -0.1009 C.3       1 <0>        -0.1202
     13 C11        -1.7787   -2.6647   -1.4842 C.3       1 <0>        -0.1161
     14 C12        -1.5925   -1.4221   -2.3618 C.3       1 <0>        -0.0934
     15 H3         -0.5416   -1.2962   -2.6221 H         1 <0>         0.0892
     16 C13        -2.0538   -0.2876   -1.4043 C.3       1 <0>        -0.0568
     17 C14        -1.6358    1.0275   -2.0343 C.3       1 <0>        -0.1071
     18 C15        -2.4311    1.1767   -3.3405 C.3       1 <0>        -0.1209
     19 C16        -2.1948    0.0008   -4.2843 C.3       1 <0>        -0.0662
     20 H4         -1.1494    0.0124   -4.5928 H         1 <0>         0.0633
     21 C17        -2.4554   -1.3589   -3.6092 C.3       1 <0>        -0.0702
     22 H5         -3.5094   -1.4390   -3.3428 H         1 <0>         0.0785
     23 C18        -2.0462   -2.4786   -4.5725 C.3       1 <0>        -0.0780
     24 C19        -2.7818   -2.3077   -5.8697 C.2       1 <0>        -0.1608
     25 C20        -3.2106   -1.1555   -6.2946 C.2       1 <0>        -0.0973
     26 C21        -3.0611    0.1553   -5.5233 C.3       1 <0>        -0.0139
     27 C22        -2.4564    1.2073   -6.4576 C.3       1 <0>        -0.1064
     28 C23        -3.3306    1.3399   -7.7061 C.3       1 <0>        -0.1148
     29 C24        -3.3444    0.0144   -8.4694 C.3       1 <0>         0.1132
     30 H6         -2.3219   -0.2780   -8.7085 H         1 <0>         0.0893
     31 C25        -3.9365   -1.1052   -7.6286 C.3       1 <0>        -0.1174
     32 O1         -4.0908    0.1684   -9.6782 O.3       1 <0>        -0.7754
     33 S1         -3.5492   -0.6411  -10.8477 S.o2      1 <0>         2.7706
     34 O2         -4.1706   -0.1117  -12.0517 O.2       1 <0>        -1.0731
     35 O3         -2.1061   -0.4583  -10.8556 O.2       1 <0>        -1.0969
     36 O4         -3.9200   -2.0274  -10.6095 O.3       1 <0>        -1.0909
     37 C26        -4.4359    0.6635   -5.0844 C.3       1 <0>        -0.1477
     38 C27        -3.5745   -0.3309   -1.2415 C.3       1 <0>        -0.1475
     39 H7          1.6482    0.0667    1.3898 H         1 <0>         0.0553
     40 H8          0.0408    0.1350    2.1514 H         1 <0>         0.0486
     41 H9          0.6537   -1.4052    1.5030 H         1 <0>         0.0539
     42 H10         0.9874   -1.6321   -1.0077 H         1 <0>         0.0646
     43 H11         0.4454   -0.3207   -2.0822 H         1 <0>         0.0817
     44 H12         2.1820    1.1739   -1.1341 H         1 <0>         0.0572
     45 H13         2.7240   -0.1375   -0.0595 H         1 <0>         0.0640
     46 H14         3.2623   -1.5346   -2.0362 H         1 <0>         0.0597
     47 H15         2.7203   -0.2232   -3.1107 H         1 <0>         0.0617
     48 H16         4.4491    1.2759   -2.0734 H         1 <0>         0.0671
     49 H17         5.3330   -1.3200   -0.7330 H         1 <0>         0.0525
     50 H18         6.2166    0.2245   -0.6881 H         1 <0>         0.0501
     51 H19         4.6244    0.0870    0.0956 H         1 <0>         0.0554
     52 H20         4.9190    0.0424   -4.1725 H         1 <0>         0.0553
     53 H21         6.3887    0.1985   -3.1805 H         1 <0>         0.0517
     54 H22         5.5051   -1.3461   -3.2254 H         1 <0>         0.0533
     55 H23        -0.2069   -2.4840    0.0188 H         1 <0>         0.0681
     56 H24        -1.8537   -2.6301    0.6965 H         1 <0>         0.0556
     57 H25        -1.1839   -3.4963   -1.8620 H         1 <0>         0.0614
     58 H26        -2.8318   -2.9390   -1.4225 H         1 <0>         0.0647
     59 H27        -1.8690    1.8525   -1.3612 H         1 <0>         0.0582
     60 H28        -0.5674    1.0132   -2.2495 H         1 <0>         0.0711
     61 H29        -3.4937    1.2350   -3.1048 H         1 <0>         0.0737
     62 H30        -2.1278    2.0979   -3.8379 H         1 <0>         0.0602
     63 H31        -0.9725   -2.4288   -4.7535 H         1 <0>         0.0705
     64 H32        -2.2982   -3.4449   -4.1357 H         1 <0>         0.0677
     65 H33        -2.9637   -3.1814   -6.4779 H         1 <0>         0.1083
     66 H34        -2.4096    2.1669   -5.9428 H         1 <0>         0.0713
     67 H35        -1.4515    0.9009   -6.7481 H         1 <0>         0.0669
     68 H36        -4.3473    1.5991   -7.4111 H         1 <0>         0.0760
     69 H37        -2.9291    2.1239   -8.3483 H         1 <0>         0.0738
     70 H38        -3.8549   -2.0707   -8.1277 H         1 <0>         0.0960
     71 H39        -4.9868   -0.8628   -7.4662 H         1 <0>         0.0785
     72 H40        -4.3248    1.6247   -4.5826 H         1 <0>         0.0626
     73 H41        -5.0756    0.7820   -5.9590 H         1 <0>         0.0606
     74 H42        -4.8867   -0.0542   -4.3990 H         1 <0>         0.0529
     75 H43        -3.8807    0.3994   -0.4925 H         1 <0>         0.0475
     76 H44        -4.0488   -0.0950   -2.1941 H         1 <0>         0.0673
     77 H45        -3.8774   -1.3280   -0.9218 H         1 <0>         0.0535
@<TRIPOS>BOND
     1    1    2 1
     2    1   39 1
     3    1   40 1
     4    1   41 1
     5    2    3 1
     6    2    4 1
     7    2   10 1
     8    4    5 1
     9    4   42 1
    10    4   43 1
    11    5    6 1
    12    5   44 1
    13    5   45 1
    14    6    7 1
    15    6   46 1
    16    6   47 1
    17    7    8 1
    18    7    9 1
    19    7   48 1
    20    8   49 1
    21    8   50 1
    22    8   51 1
    23    9   52 1
    24    9   53 1
    25    9   54 1
    26   10   11 1
    27   10   16 1
    28   10   12 1
    29   12   13 1
    30   12   55 1
    31   12   56 1
    32   13   14 1
    33   13   57 1
    34   13   58 1
    35   14   15 1
    36   14   21 1
    37   14   16 1
    38   16   17 1
    39   16   38 1
    40   17   18 1
    41   17   59 1
    42   17   60 1
    43   18   19 1
    44   18   61 1
    45   18   62 1
    46   19   20 1
    47   19   26 1
    48   19   21 1
    49   21   22 1
    50   21   23 1
    51   23   24 1
    52   23   63 1
    53   23   64 1
    54   24   25 2
    55   24   65 1
    56   25   31 1
    57   25   26 1
    58   26   27 1
    59   26   37 1
    60   27   28 1
    61   27   66 1
    62   27   67 1
    63   28   29 1
    64   28   68 1
    65   28   69 1
    66   29   30 1
    67   29   31 1
    68   29   32 1
    69   31   70 1
    70   31   71 1
    71   32   33 1
    72   33   34 2
    73   33   35 2
    74   33   36 1
    75   37   72 1
    76   37   73 1
    77   37   74 1
    78   38   75 1
    79   38   76 1
    80   38   77 1
@<TRIPOS>MOLECULE
ZINC02579382
   46    49     0     0     0
SMALL
USER_CHARGES

@<TRIPOS>ATOM
      1 C1         -0.0166    1.3750    0.0096 C.ar      1 <0>        -0.1177
      2 C2          1.1687    2.0883    0.0021 C.ar      1 <0>        -0.1135
      3 C3          2.3801    1.4204   -0.0135 C.ar      1 <0>        -0.0936
      4 C4          2.4083    0.0417   -0.0212 C.ar      1 <0>        -0.0827
      5 C5          1.2210   -0.6848   -0.0133 C.ar      1 <0>        -0.0492
      6 C6          0.0021   -0.0041    0.0020 C.ar      1 <0>        -0.0990
      7 C7          1.5297   -2.1362   -0.0247 C.ar      1 <0>        -0.0608
      8 C8          0.6935   -3.2543   -0.0227 C.ar      1 <0>        -0.0990
      9 C9          1.2378   -4.5215   -0.0354 C.ar      1 <0>        -0.1209
     10 C10         2.6107   -4.6904   -0.0503 C.ar      1 <0>        -0.1131
     11 C11         3.4454   -3.5871   -0.0524 C.ar      1 <0>        -0.0847
     12 C12         2.9100   -2.3164   -0.0397 C.ar      1 <0>        -0.0771
     13 C13         3.5470   -0.9484   -0.0383 C.3       1 <0>        -0.0100
     14 C14         4.3909   -0.7589   -1.3004 C.3       1 <0>         0.1086
     15 O1          5.5287   -1.6218   -1.2466 O.3       1 <0>        -0.3679
     16 C15         6.3794   -1.5772   -2.2892 C.2       1 <0>         0.6542
     17 O2          6.1618   -0.8263   -3.2193 O.2       1 <0>        -0.5734
     18 N1          7.4725   -2.3656   -2.3012 N.am      1 <0>        -0.6726
     19 C16         8.3982   -2.3171   -3.4356 C.3       1 <0>         0.0984
     20 H1          7.8381   -2.1440   -4.3545 H         1 <0>         0.0913
     21 C17         9.1488   -3.6463   -3.5385 C.3       1 <0>        -0.0340
     22 C18         8.1751   -4.7491   -3.8654 C.2       1 <0>        -0.0984
     23 C19         7.7832   -5.2099   -5.0785 C.2       1 <0>        -0.1616
     24 C20         6.8670   -6.2436   -5.1389 C.2       1 <0>        -0.1044
     25 C21         6.3878   -6.7655   -3.9828 C.2       1 <0>        -0.1620
     26 S1          7.2444   -5.7925   -2.7553 S.3       1 <0>         0.0688
     27 Br1         6.2904   -6.9189   -6.8085 Br        1 <0>        -0.0481
     28 C22         9.3856   -1.1972   -3.2307 C.2       1 <0>         0.4926
     29 O3          9.4418   -0.6229   -2.1567 O.co2     1 <0>        -0.6783
     30 O4         10.1283   -0.8655   -4.1390 O.co2     1 <0>        -0.6889
     31 H2         -0.9603    1.9001    0.0260 H         1 <0>         0.1257
     32 H3          1.1483    3.1681    0.0081 H         1 <0>         0.1282
     33 H4          3.3044    1.9791   -0.0200 H         1 <0>         0.1289
     34 H5         -0.9256   -0.5570    0.0076 H         1 <0>         0.1221
     35 H6         -0.3789   -3.1269   -0.0107 H         1 <0>         0.1202
     36 H7          0.5895   -5.3854   -0.0335 H         1 <0>         0.1240
     37 H8          3.0316   -5.6850   -0.0598 H         1 <0>         0.1264
     38 H9          4.5170   -3.7211   -0.0640 H         1 <0>         0.1320
     39 H10         4.1662   -0.8236    0.8500 H         1 <0>         0.1149
     40 H11         3.7917   -1.0020   -2.1780 H         1 <0>         0.0679
     41 H12         4.7233    0.2772   -1.3631 H         1 <0>         0.0743
     42 H13         7.6463   -2.9651   -1.5587 H         1 <0>         0.3955
     43 H14         9.8998   -3.5796   -4.3257 H         1 <0>         0.1155
     44 H15         9.6369   -3.8625   -2.5882 H         1 <0>         0.0869
     45 H16         8.1805   -4.7759   -5.9841 H         1 <0>         0.1439
     46 H17         5.6762   -7.5654   -3.8413 H         1 <0>         0.1905
@<TRIPOS>BOND
     1    1    6 ar
     2    1    2 ar
     3    1   31 1
     4    2    3 ar
     5    2   32 1
     6    3    4 ar
     7    3   33 1
     8    4   13 1
     9    4    5 ar
    10    5    6 ar
    11    5    7 1
    12    6   34 1
    13    7   12 ar
    14    7    8 ar
    15    8    9 ar
    16    8   35 1
    17    9   10 ar
    18    9   36 1
    19   10   11 ar
    20   10   37 1
    21   11   12 ar
    22   11   38 1
    23   12   13 1
    24   13   14 1
    25   13   39 1
    26   14   15 1
    27   14   40 1
    28   14   41 1
    29   15   16 1
    30   16   17 2
    31   16   18 am
    32   18   19 1
    33   18   42 1
    34   19   20 1
    35   19   21 1
    36   19   28 1
    37   21   22 1
    38   21   43 1
    39   21   44 1
    40   22   26 1
    41   22   23 2
    42   23   24 1
    43   23   45 1
    44   24   25 2
    45   24   27 1
    46   25   26 1
    47   25   46 1
    48   28   29 2
    49   28   30 1
@<TRIPOS>MOLECULE
ZINC08873042
   38    39     0     0     0
SMALL
USER_CHARGES

@<TRIPOS>ATOM
      1 C1         -0.0247    1.3538    0.3951 C.ar      1 <0>        -0.0856
      2 C2          1.1618    2.0607    0.4728 C.ar      1 <0>        -0.1047
      3 C3          2.3721    1.3923    0.4440 C.ar      1 <0>        -0.1518
      4 C4          2.4003    0.0158    0.3374 C.ar      1 <0>        -0.1201
      5 C5          1.2102   -0.6979    0.2591 C.ar      1 <0>         0.1918
      6 C6         -0.0046   -0.0224    0.2884 C.ar      1 <0>        -0.1041
      7 N1          1.2346   -2.0884    0.1513 N.pl3     1 <0>        -0.5191
      8 N2          0.1291   -2.7492    0.0787 N.2       1 <0>        -0.1271
      9 C7          0.1519   -4.0536   -0.1208 C.2       1 <0>         0.0256
     10 C8          1.4276   -4.7687   -0.1371 C.2       1 <0>         0.3635
     11 O1          1.9914   -4.9802   -1.1910 O.2       1 <0>        -0.3564
     12 C9          2.0421   -5.2431    1.1546 C.3       1 <0>         0.4229
     13 F1          3.1907   -5.9921    0.8772 F         1 <0>        -0.1636
     14 F2          2.3847   -4.1382    1.9414 F         1 <0>        -0.1745
     15 F3          1.1215   -6.0393    1.8443 F         1 <0>        -0.1445
     16 C10        -1.1067   -4.7888   -0.3270 C.2       1 <0>         0.4711
     17 O2         -2.2867   -4.1274   -0.3119 O.3       1 <0>        -0.6933
     18 N3         -1.0840   -6.0850   -0.5252 N.2       1 <0>        -0.6676
     19 C11        -2.2542   -6.7685   -0.7169 C.ar      1 <0>         0.2016
     20 C12        -3.3561   -6.5159    0.1033 C.ar      1 <0>        -0.1247
     21 C13        -4.5326   -7.2079   -0.0946 C.ar      1 <0>        -0.1370
     22 C14        -4.6226   -8.1525   -1.1045 C.ar      1 <0>         0.0214
     23 C15        -3.5326   -8.4078   -1.9211 C.ar      1 <0>        -0.1367
     24 C16        -2.3529   -7.7173   -1.7371 C.ar      1 <0>        -0.1378
     25 F4         -5.7775   -8.8275   -1.2934 F         1 <0>        -0.1614
     26 C17         3.6619    2.1672    0.5285 C.3       1 <0>         0.5112
     27 F5          3.3792    3.5336    0.6290 F         1 <0>        -0.1762
     28 F6          4.3802    1.7553    1.6561 F         1 <0>        -0.1762
     29 F7          4.4234    1.9318   -0.6212 F         1 <0>        -0.1762
     30 H1         -0.9681    1.8789    0.4224 H         1 <0>         0.1421
     31 H2          1.1429    3.1373    0.5559 H         1 <0>         0.1392
     32 H3          3.3458   -0.5055    0.3146 H         1 <0>         0.1358
     33 H4         -0.9313   -0.5737    0.2281 H         1 <0>         0.1550
     34 H5          2.0829   -2.5585    0.1310 H         1 <0>         0.3771
     35 H6         -3.2869   -5.7804    0.8911 H         1 <0>         0.1267
     36 H7         -5.3854   -7.0134    0.5389 H         1 <0>         0.1156
     37 H8         -3.6085   -9.1453   -2.7064 H         1 <0>         0.1182
     38 H9         -1.5056   -7.9134   -2.3775 H         1 <0>         0.1199
@<TRIPOS>BOND
     1    1    6 ar
     2    1    2 ar
     3    1   30 1
     4    2    3 ar
     5    2   31 1
     6    3    4 ar
     7    3   26 1
     8    4    5 ar
     9    4   32 1
    10    5    6 ar
    11    5    7 1
    12    6   33 1
    13    7    8 1
    14    7   34 1
    15    8    9 2
    16    9   10 1
    17    9   16 1
    18   10   11 2
    19   10   12 1
    20   12   13 1
    21   12   14 1
    22   12   15 1
    23   16   17 1
    24   16   18 2
    25   18   19 1
    26   19   24 ar
    27   19   20 ar
    28   20   21 ar
    29   20   35 1
    30   21   22 ar
    31   21   36 1
    32   22   23 ar
    33   22   25 1
    34   23   24 ar
    35   23   37 1
    36   24   38 1
    37   26   27 1
    38   26   28 1
    39   26   29 1
@<TRIPOS>MOLECULE
ZINC05998619
   31    33     0     0     0
SMALL
USER_CHARGES
5-(2-chlorophenyl)-4-[(4-fluorophenyl)methyleneamino]-1,2,4-triazole-3-thiol
@<TRIPOS>ATOM
      1 C1          1.9250    1.4601   -0.6657 C.ar      1 <0>        -0.1162
      2 C2          1.2049    2.0720    0.3453 C.ar      1 <0>        -0.1082
      3 C3          0.5014    1.3103    1.2608 C.ar      1 <0>        -0.1143
      4 C4          0.5137   -0.0678    1.1711 C.ar      1 <0>        -0.0111
      5 C5          1.2387   -0.6912    0.1528 C.ar      1 <0>         0.0212
      6 C6          1.9461    0.0847   -0.7673 C.ar      1 <0>        -0.0867
      7 C7          1.2573   -2.1652    0.0503 C.2       1 <0>         0.1471
      8 N1          0.2180   -2.9659    0.1170 N.2       1 <0>        -0.2478
      9 N2          0.5949   -4.1878   -0.0101 N.2       1 <0>        -0.3310
     10 C8          1.8990   -4.2455   -0.1661 C.2       1 <0>         0.3807
     11 N3          2.3673   -2.9594   -0.1392 N.pl3     1 <0>        -0.3611
     12 N4          3.6970   -2.5389   -0.2734 N.2       1 <0>        -0.2287
     13 C9          4.4559   -2.4423    0.7748 C.2       1 <0>         0.1760
     14 C10         5.8201   -1.8970    0.6495 C.ar      1 <0>        -0.0675
     15 C11         6.3004   -1.4888   -0.5973 C.ar      1 <0>        -0.0394
     16 C12         7.5755   -0.9760   -0.7076 C.ar      1 <0>        -0.1600
     17 C13         8.3836   -0.8737    0.4140 C.ar      1 <0>         0.1147
     18 C14         7.9143   -1.2815    1.6529 C.ar      1 <0>        -0.1598
     19 C15         6.6394   -1.7918    1.7763 C.ar      1 <0>        -0.0518
     20 F1          9.6339   -0.3748    0.2991 F         1 <0>        -0.1387
     21 S1          2.8631   -5.7050   -0.3783 S.3       1 <0>        -0.7917
     22 Cl1        -0.3700   -1.0226    2.3205 Cl        1 <0>        -0.0484
     23 H1          2.4755    2.0610   -1.3744 H         1 <0>         0.1300
     24 H2          1.1921    3.1493    0.4199 H         1 <0>         0.1308
     25 H3         -0.0582    1.7941    2.0476 H         1 <0>         0.1348
     26 H4          2.5083   -0.3910   -1.5572 H         1 <0>         0.1336
     27 H5          4.0815   -2.7672    1.7567 H         1 <0>         0.1254
     28 H6          5.6731   -1.5720   -1.4725 H         1 <0>         0.1463
     29 H7          7.9467   -0.6570   -1.6703 H         1 <0>         0.1402
     30 H8          8.5486   -1.1997    2.5231 H         1 <0>         0.1407
     31 H9          6.2751   -2.1099    2.7419 H         1 <0>         0.1410
@<TRIPOS>BOND
     1    1    6 ar
     2    1    2 ar
     3    1   23 1
     4    2    3 ar
     5    2   24 1
     6    3    4 ar
     7    3   25 1
     8    4    5 ar
     9    4   22 1
    10    5    6 ar
    11    5    7 1
    12    6   26 1
    13    7   11 1
    14    7    8 2
    15    8    9 1
    16    9   10 2
    17   10   11 1
    18   10   21 1
    19   11   12 1
    20   12   13 2
    21   13   14 1
    22   13   27 1
    23   14   19 ar
    24   14   15 ar
    25   15   16 ar
    26   15   28 1
    27   16   17 ar
    28   16   29 1
    29   17   18 ar
    30   17   20 1
    31   18   19 ar
    32   18   30 1
    33   19   31 1
@<TRIPOS>MOLECULE
ZINC33298808
   32    34     0     0     0
SMALL
USER_CHARGES
3-chloro-4-fluoro-N-(2-methylsulfanyl-1,3-benzothiazol-6-yl)benzenesulfonamide
@<TRIPOS>ATOM
      1 C1         -0.6827    7.4783   -6.5549 C.3       1 <0>        -0.1448
      2 S1         -0.1726    5.9515   -7.3823 S.3       1 <0>         0.0040
      3 C2          0.8034    5.2244   -6.1082 C.2       1 <0>         0.0711
      4 N1          1.0672    5.6867   -4.9073 N.2       1 <0>        -0.4721
      5 C3          1.8402    5.0140   -4.0242 C.ar      1 <0>        -0.0052
      6 C4          2.1980    5.3972   -2.7112 C.ar      1 <0>        -0.0253
      7 C5          2.9963    4.5954   -1.9385 C.ar      1 <0>        -0.2048
      8 C6          3.4817    3.3795   -2.4143 C.ar      1 <0>         0.2704
      9 C7          3.1528    2.9767   -3.7021 C.ar      1 <0>        -0.1260
     10 C8          2.3494    3.7758   -4.4762 C.ar      1 <0>        -0.0847
     11 S2          1.6861    3.6705   -6.1212 S.3       1 <0>        -0.0129
     12 N2          4.2954    2.5765   -1.6067 N.2       1 <0>        -1.0537
     13 S3          3.8905    2.3164   -0.0222 S.o2      1 <0>         2.5953
     14 O1          3.6061    3.5907    0.5387 O.2       1 <0>        -1.0279
     15 O2          4.8830    1.4524    0.5141 O.2       1 <0>        -0.9838
     16 C9          2.3778    1.4130   -0.0126 C.ar      1 <0>        -0.6564
     17 C10         1.1707    2.0872    0.0021 C.ar      1 <0>         0.0048
     18 C11        -0.0167    1.3802    0.0096 C.ar      1 <0>        -0.1653
     19 C12         0.0021   -0.0041    0.0020 C.ar      1 <0>         0.1402
     20 C13         1.2119   -0.6791   -0.0132 C.ar      1 <0>        -0.0972
     21 C14         2.3989    0.0310   -0.0207 C.ar      1 <0>         0.0127
     22 Cl1         1.2380   -2.4149   -0.0222 Cl        1 <0>        -0.0547
     23 F1         -1.1582   -0.6960    0.0089 F         1 <0>        -0.1271
     24 H1         -1.3178    8.0679   -7.2324 H         1 <0>         0.1055
     25 H2          0.2082    8.0642   -6.2848 H         1 <0>         0.0907
     26 H3         -1.2485    7.2306   -5.6447 H         1 <0>         0.0903
     27 H4          1.8378    6.3340   -2.3123 H         1 <0>         0.1195
     28 H5          3.2545    4.9127   -0.9390 H         1 <0>         0.1568
     29 H6          3.5233    2.0394   -4.0901 H         1 <0>         0.1276
     30 H7          1.1559    3.1670    0.0080 H         1 <0>         0.1505
     31 H8         -0.9592    1.9076    0.0169 H         1 <0>         0.1469
     32 H9          3.3423   -0.4945   -0.0325 H         1 <0>         0.1557
@<TRIPOS>BOND
     1    1    2 1
     2    1   24 1
     3    1   25 1
     4    1   26 1
     5    2    3 1
     6    3   11 1
     7    3    4 2
     8    4    5 1
     9    5   10 ar
    10    5    6 ar
    11    6    7 ar
    12    6   27 1
    13    7    8 ar
    14    7   28 1
    15    8    9 ar
    16    8   12 1
    17    9   10 ar
    18    9   29 1
    19   10   11 1
    20   12   13 1
    21   13   14 2
    22   13   15 2
    23   13   16 1
    24   16   21 ar
    25   16   17 ar
    26   17   18 ar
    27   17   30 1
    28   18   19 ar
    29   18   31 1
    30   19   20 ar
    31   19   23 1
    32   20   21 ar
    33   20   22 1
    34   21   32 1
@<TRIPOS>MOLECULE
ZINC40285568
   33    35     0     0     0
SMALL
USER_CHARGES

@<TRIPOS>ATOM
      1 C1         -0.0609    1.2234   -0.4243 C.3       1 <0>        -0.1139
      2 C2         -0.1008   -0.2756   -0.2737 C.ar      1 <0>        -0.0816
      3 C3         -0.2282   -1.0793   -1.3911 C.ar      1 <0>        -0.1201
      4 C4         -0.2648   -2.4543   -1.2530 C.ar      1 <0>        -0.0840
      5 C5         -0.1735   -3.0255    0.0026 C.ar      1 <0>        -0.1111
      6 C6         -0.0452   -2.2217    1.1199 C.ar      1 <0>        -0.0665
      7 C7         -0.0043   -0.8469    0.9813 C.ar      1 <0>        -0.1027
      8 C8          0.0537   -2.8444    2.4887 C.3       1 <0>         0.0615
      9 H1          0.1324   -3.9271    2.3905 H         1 <0>         0.1123
     10 C9         -1.1773   -2.5005    3.2871 C.ar      1 <0>        -0.1406
     11 C10        -1.4099   -1.1859    3.6617 C.ar      1 <0>        -0.0886
     12 C11        -2.5311   -0.8570    4.3912 C.ar      1 <0>        -0.1209
     13 C12        -3.4373   -1.8540    4.7547 C.ar      1 <0>         0.1079
     14 C13        -3.1982   -3.1828    4.3737 C.ar      1 <0>        -0.0422
     15 C14        -2.0680   -3.4953    3.6355 C.ar      1 <0>        -0.0549
     16 O1         -4.2297   -3.9100    4.8605 O.3       1 <0>        -0.2750
     17 C15        -5.0620   -3.0767    5.5075 C.2       1 <0>         0.5147
     18 O2         -6.2051   -3.4498    6.1253 O.3       1 <0>        -0.6454
     19 N1         -4.6057   -1.8539    5.4536 N.2       1 <0>        -0.6104
     20 Br1         1.6468   -2.1524    3.4098 Br        1 <0>        -0.1541
     21 C16        -0.4047   -3.3305   -2.4711 C.3       1 <0>        -0.1125
     22 H2          0.9713    1.5479   -0.5560 H         1 <0>         0.0689
     23 H3         -0.6479    1.5168   -1.2946 H         1 <0>         0.0646
     24 H4         -0.4772    1.6895    0.4687 H         1 <0>         0.0681
     25 H5         -0.2995   -0.6331   -2.3720 H         1 <0>         0.1190
     26 H6         -0.2028   -4.0996    0.1105 H         1 <0>         0.1219
     27 H7          0.0997   -0.2191    1.8539 H         1 <0>         0.1283
     28 H8         -0.7076   -0.4153    3.3800 H         1 <0>         0.1202
     29 H9         -2.7080    0.1682    4.6810 H         1 <0>         0.1211
     30 H10        -1.8824   -4.5165    3.3368 H         1 <0>         0.1168
     31 H11         0.5846   -3.5781   -2.8560 H         1 <0>         0.0683
     32 H12        -0.9294   -4.2469   -2.2011 H         1 <0>         0.0661
     33 H13        -0.9703   -2.8001   -3.2371 H         1 <0>         0.0647
@<TRIPOS>BOND
     1    1    2 1
     2    1   22 1
     3    1   23 1
     4    1   24 1
     5    2    7 ar
     6    2    3 ar
     7    3    4 ar
     8    3   25 1
     9    4    5 ar
    10    4   21 1
    11    5    6 ar
    12    5   26 1
    13    6    7 ar
    14    6    8 1
    15    7   27 1
    16    8    9 1
    17    8   10 1
    18    8   20 1
    19   10   15 ar
    20   10   11 ar
    21   11   12 ar
    22   11   28 1
    23   12   13 ar
    24   12   29 1
    25   13   19 1
    26   13   14 ar
    27   14   15 ar
    28   14   16 1
    29   15   30 1
    30   16   17 1
    31   17   18 1
    32   17   19 2
    33   21   31 1
    34   21   32 1
    35   21   33 1
@<TRIPOS>MOLECULE
ZINC49510063
   31    33     0     0     0
SMALL
USER_CHARGES

@<TRIPOS>ATOM
      1 C1          0.6451    1.3372   -0.3565 C.3       1 <0>        -0.1706
      2 C2          0.0021   -0.0041    0.0020 C.3       1 <0>         0.1837
      3 H1         -1.0534    0.1478    0.2277 H         1 <0>         0.0939
      4 C3          0.6945   -0.5871    1.2068 C.ar      1 <0>        -0.0569
      5 C4          2.0579   -0.4242    1.3667 C.ar      1 <0>        -0.0062
      6 C5          2.6932   -0.9589    2.4718 C.ar      1 <0>        -0.1217
      7 C6          1.9655   -1.6569    3.4178 C.ar      1 <0>        -0.0911
      8 C7          0.6025   -1.8203    3.2590 C.ar      1 <0>        -0.1187
      9 C8         -0.0349   -1.2804    2.1559 C.ar      1 <0>         0.0035
     10 Cl1        -1.7482   -1.4797    1.9591 Cl        1 <0>        -0.0951
     11 N1          0.1318   -0.9257   -1.1293 N.pl3     1 <0>        -0.4810
     12 C9         -0.4242   -0.7896   -2.3820 C.2       1 <0>         0.1782
     13 N2         -0.0545   -1.8389   -3.0829 N.2       1 <0>        -0.2587
     14 N3          0.6826   -2.6085   -2.3647 N.2       1 <0>        -0.3400
     15 C10         0.8351   -2.0978   -1.1642 C.2       1 <0>         0.3799
     16 S1          1.7685   -2.7958    0.1573 S.3       1 <0>        -0.7635
     17 C11        -1.2720    0.3197   -2.8477 C.2       1 <0>        -0.0351
     18 C12        -1.6284    0.6566   -4.1292 C.2       1 <0>        -0.1468
     19 C13        -2.4414    1.7507   -4.3227 C.2       1 <0>        -0.1425
     20 C14        -2.8644    2.4605   -3.2449 C.2       1 <0>        -0.1969
     21 S2         -2.1108    1.5728   -1.8918 S.3       1 <0>         0.0526
     22 H2          1.7006    1.1853   -0.5822 H         1 <0>         0.0670
     23 H3          0.1443    1.7589   -1.2279 H         1 <0>         0.0713
     24 H4          0.5486    2.0229    0.4853 H         1 <0>         0.0787
     25 H5          2.6269    0.1206    0.6279 H         1 <0>         0.1134
     26 H6          3.7585   -0.8317    2.5961 H         1 <0>         0.1127
     27 H7          2.4625   -2.0747    4.2808 H         1 <0>         0.1146
     28 H8          0.0343   -2.3658    3.9979 H         1 <0>         0.1169
     29 H9         -1.2778    0.0753   -4.9692 H         1 <0>         0.1410
     30 H10        -2.7389    2.0411   -5.3195 H         1 <0>         0.1336
     31 H11        -3.4979    3.3346   -3.2140 H         1 <0>         0.1838
@<TRIPOS>BOND
     1    1    2 1
     2    1   22 1
     3    1   23 1
     4    1   24 1
     5    2    3 1
     6    2    4 1
     7    2   11 1
     8    4    9 ar
     9    4    5 ar
    10    5    6 ar
    11    5   25 1
    12    6    7 ar
    13    6   26 1
    14    7    8 ar
    15    7   27 1
    16    8    9 ar
    17    8   28 1
    18    9   10 1
    19   11   15 1
    20   11   12 1
    21   12   17 1
    22   12   13 2
    23   13   14 1
    24   14   15 2
    25   15   16 1
    26   17   21 1
    27   17   18 2
    28   18   19 1
    29   18   29 1
    30   19   20 2
    31   19   30 1
    32   20   21 1
    33   20   31 1
@<TRIPOS>MOLECULE
ZINC06394414
   47    50     0     0     0
SMALL
USER_CHARGES

@<TRIPOS>ATOM
      1 C1         -1.3794    3.2115    0.4142 C.3       1 <0>        -0.1520
      2 C2         -0.6932    1.9225   -0.0425 C.3       1 <0>        -0.0507
      3 C3         -1.7226    0.7988   -0.1239 C.3       1 <0>        -0.0820
      4 C4         -2.2719    0.4610    1.2367 C.2       1 <0>         0.2148
      5 C5         -1.5698    0.7522    2.3899 C.2       1 <0>        -0.2983
      6 C6         -2.1374    0.3960    3.6926 C.2       1 <0>         0.3612
      7 C7         -3.3835   -0.2258    3.7152 C.2       1 <0>        -0.4269
      8 C8         -4.0362   -0.4812    2.4902 C.2       1 <0>         0.5395
      9 O1         -5.1288   -1.0225    2.4972 O.2       1 <0>        -0.5845
     10 N1         -3.4795   -0.1409    1.3192 N.am      1 <0>        -0.4754
     11 C9         -4.1756   -0.4195    0.1363 C.ar      1 <0>         0.1342
     12 C10        -3.9537   -1.6136   -0.5369 C.ar      1 <0>        -0.1058
     13 C11        -4.6417   -1.8854   -1.7032 C.ar      1 <0>        -0.1126
     14 C12        -5.5507   -0.9697   -2.2008 C.ar      1 <0>        -0.1186
     15 C13        -5.7739    0.2203   -1.5328 C.ar      1 <0>        -0.1128
     16 C14        -5.0933    0.4954   -0.3630 C.ar      1 <0>        -0.1035
     17 C15        -4.0114   -0.6120    5.0002 C.ar      1 <0>         0.0872
     18 C16        -4.2183   -1.9578    5.3017 C.ar      1 <0>        -0.1153
     19 C17        -4.8032   -2.3113    6.5004 C.ar      1 <0>        -0.1290
     20 C18        -5.1845   -1.3338    7.4021 C.ar      1 <0>        -0.1542
     21 C19        -4.9818    0.0028    7.1087 C.ar      1 <0>        -0.1281
     22 C20        -4.3927    0.3685    5.9157 C.ar      1 <0>        -0.1073
     23 O2         -1.4715    0.6633    4.8392 O.3       1 <0>        -0.6358
     24 C21        -0.2644    1.4204    2.3225 C.2       1 <0>         0.4089
     25 O3          0.2659    1.8628    3.3201 O.2       1 <0>        -0.4362
     26 C22         0.3984    1.5385    0.9655 C.3       1 <0>        -0.1576
     27 C23        -0.0632    2.1397   -1.4197 C.3       1 <0>        -0.1376
     28 H1         -0.6433    4.0130    0.4751 H         1 <0>         0.0599
     29 H2         -2.1547    3.4838   -0.3020 H         1 <0>         0.0578
     30 H3         -1.8292    3.0559    1.3948 H         1 <0>         0.0645
     31 H4         -2.5414    1.1111   -0.7720 H         1 <0>         0.0871
     32 H5         -1.2508   -0.0873   -0.5485 H         1 <0>         0.0920
     33 H6         -3.2436   -2.3290   -0.1489 H         1 <0>         0.1244
     34 H7         -4.4693   -2.8138   -2.2274 H         1 <0>         0.1257
     35 H8         -6.0871   -1.1844   -3.1132 H         1 <0>         0.1231
     36 H9         -6.4844    0.9334   -1.9240 H         1 <0>         0.1256
     37 H10        -5.2713    1.4231    0.1607 H         1 <0>         0.1243
     38 H11        -3.9217   -2.7217    4.5983 H         1 <0>         0.1059
     39 H12        -4.9640   -3.3532    6.7351 H         1 <0>         0.1063
     40 H13        -5.6426   -1.6154    8.3388 H         1 <0>         0.1056
     41 H14        -5.2816    0.7614    7.8165 H         1 <0>         0.1071
     42 H15        -4.2309    1.4122    5.6896 H         1 <0>         0.1091
     43 H16         0.8428    0.5834    0.6852 H         1 <0>         0.0940
     44 H17         1.1660    2.3118    0.9936 H         1 <0>         0.0890
     45 H18         0.6729    2.9414   -1.3602 H         1 <0>         0.0608
     46 H19         0.4255    1.2211   -1.7446 H         1 <0>         0.0580
     47 H20        -0.8391    2.4112   -2.1355 H         1 <0>         0.0582
@<TRIPOS>BOND
     1    1    2 1
     2    1   28 1
     3    1   29 1
     4    1   30 1
     5    2   26 1
     6    2    3 1
     7    2   27 1
     8    3    4 1
     9    3   31 1
    10    3   32 1
    11    4   10 1
    12    4    5 2
    13    5    6 1
    14    5   24 1
    15    6    7 2
    16    6   23 1
    17    7    8 1
    18    7   17 1
    19    8    9 2
    20    8   10 am
    21   10   11 1
    22   11   16 ar
    23   11   12 ar
    24   12   13 ar
    25   12   33 1
    26   13   14 ar
    27   13   34 1
    28   14   15 ar
    29   14   35 1
    30   15   16 ar
    31   15   36 1
    32   16   37 1
    33   17   22 ar
    34   17   18 ar
    35   18   19 ar
    36   18   38 1
    37   19   20 ar
    38   19   39 1
    39   20   21 ar
    40   20   40 1
    41   21   22 ar
    42   21   41 1
    43   22   42 1
    44   24   25 2
    45   24   26 1
    46   26   43 1
    47   26   44 1
    48   27   45 1
    49   27   46 1
    50   27   47 1
@<TRIPOS>MOLECULE
ZINC67341469
   39    42     0     0     0
SMALL
USER_CHARGES

@<TRIPOS>ATOM
      1 C1         -0.0167    1.3795    0.0096 C.ar      1 <0>        -0.1155
      2 C2          1.1663    2.0887    0.0021 C.ar      1 <0>        -0.0749
      3 C3          2.3857    1.4065   -0.0131 C.ar      1 <0>         0.0540
      4 C4          2.3967    0.0089   -0.0207 C.ar      1 <0>        -0.0872
      5 C5          1.2062   -0.6866   -0.0131 C.ar      1 <0>        -0.1823
      6 C6          0.0021   -0.0041    0.0020 C.ar      1 <0>        -0.0938
      7 C7          1.2159   -2.1936   -0.0217 C.3       1 <0>         0.5099
      8 F1          1.2317   -2.6674    1.2945 F         1 <0>        -0.1795
      9 F2          0.0703   -2.6636   -0.6728 F         1 <0>        -0.1803
     10 F3          2.3547   -2.6487   -0.6949 F         1 <0>        -0.1788
     11 C8          3.6550    2.1577   -0.0217 C.2       1 <0>        -0.2421
     12 C9          3.8501    3.5137   -0.0112 C.2       1 <0>         0.3588
     13 N1          5.1559    3.9872   -0.0292 N.pl3     1 <0>        -0.4849
     14 C10         6.1759    3.0969   -0.0376 C.2       1 <0>         0.2722
     15 S1          7.8610    3.3992   -0.0388 S.2       1 <0>        -0.5017
     16 S2          5.3239    1.5308   -0.0404 S.3       1 <0>         0.0790
     17 C11         5.3872    5.4572   -0.0475 C.3       1 <0>         0.1414
     18 H1          5.2862    5.8665    0.9577 H         1 <0>         0.0938
     19 C12         6.7812    5.7420   -0.5926 C.3       1 <0>        -0.1562
     20 C13         6.9330    5.1385   -1.9897 C.3       1 <0>        -0.1080
     21 C14         5.8862    5.7584   -2.9189 C.3       1 <0>        -0.1216
     22 C15         4.4896    5.4405   -2.3853 C.3       1 <0>        -0.1018
     23 C16         4.3026    6.0392   -0.9686 C.3       1 <0>        -0.1331
     24 H2          4.3841    7.1254   -1.0076 H         1 <0>         0.1063
     25 C17         2.9561    5.6144   -0.4192 C.2       1 <0>         0.4435
     26 O1          1.9338    6.4946   -0.3809 O.3       1 <0>        -0.6471
     27 N2          2.7864    4.3977    0.0170 N.2       1 <0>        -0.6164
     28 H3         -0.9599    1.9054    0.0260 H         1 <0>         0.1320
     29 H4          1.1502    3.1685    0.0077 H         1 <0>         0.1726
     30 H5          3.3355   -0.5250   -0.0328 H         1 <0>         0.1276
     31 H6         -0.9273   -0.5541    0.0083 H         1 <0>         0.1279
     32 H7          6.9353    6.8197   -0.6458 H         1 <0>         0.0703
     33 H8          7.5257    5.3048    0.0727 H         1 <0>         0.1354
     34 H9          7.9313    5.3510   -2.3721 H         1 <0>         0.0675
     35 H10         6.7826    4.0601   -1.9392 H         1 <0>         0.0672
     36 H11         6.0252    6.8389   -2.9546 H         1 <0>         0.0618
     37 H12         5.9966    5.3428   -3.9205 H         1 <0>         0.0610
     38 H13         3.7413    5.8649   -3.0547 H         1 <0>         0.0674
     39 H14         4.3581    4.3596   -2.3368 H         1 <0>         0.0556
@<TRIPOS>BOND
     1    1    6 ar
     2    1    2 ar
     3    1   28 1
     4    2    3 ar
     5    2   29 1
     6    3    4 ar
     7    3   11 1
     8    4    5 ar
     9    4   30 1
    10    5    6 ar
    11    5    7 1
    12    6   31 1
    13    7    8 1
    14    7    9 1
    15    7   10 1
    16   11   16 1
    17   11   12 2
    18   12   27 1
    19   12   13 1
    20   13   14 1
    21   13   17 1
    22   14   15 2
    23   14   16 1
    24   17   18 1
    25   17   23 1
    26   17   19 1
    27   19   20 1
    28   19   32 1
    29   19   33 1
    30   20   21 1
    31   20   34 1
    32   20   35 1
    33   21   22 1
    34   21   36 1
    35   21   37 1
    36   22   23 1
    37   22   38 1
    38   22   39 1
    39   23   24 1
    40   23   25 1
    41   25   26 1
    42   25   27 2
@<TRIPOS>MOLECULE
ZINC10680400
   64    65     0     0     0
SMALL
USER_CHARGES
N-(4-isopentyloxyphenyl)-2-(2-sec-butylphenoxy)-butanamide
@<TRIPOS>ATOM
      1 C1         -3.5053   -3.5725    0.0095 C.3       1 <0>        -0.1548
      2 C2         -2.1732   -3.2296   -0.6605 C.3       1 <0>        -0.1129
      3 C3         -1.2713   -2.5036    0.3397 C.3       1 <0>        -0.0496
      4 H1         -1.7950   -1.6338    0.7364 H         1 <0>         0.0878
      5 C4         -0.9153   -3.4514    1.4868 C.3       1 <0>        -0.1437
      6 C5         -0.0097   -2.0575   -0.3533 C.ar      1 <0>        -0.1005
      7 C6          0.8244   -2.9905   -0.9389 C.ar      1 <0>        -0.0773
      8 C7          1.9817   -2.5819   -1.5752 C.ar      1 <0>        -0.1528
      9 C8          2.3073   -1.2389   -1.6277 C.ar      1 <0>        -0.0843
     10 C9          1.4742   -0.3018   -1.0485 C.ar      1 <0>        -0.2091
     11 C10         0.3150   -0.7099   -0.4043 C.ar      1 <0>         0.1305
     12 O1         -0.5038    0.2097    0.1710 O.3       1 <0>        -0.2779
     13 C11        -0.1586    1.5853   -0.0040 C.3       1 <0>         0.0669
     14 H2          0.9188    1.6746   -0.1433 H         1 <0>         0.1072
     15 C12        -0.8795    2.1395   -1.2345 C.3       1 <0>        -0.1404
     16 C13        -0.3656    1.4304   -2.4891 C.3       1 <0>        -0.1581
     17 C14        -0.5739    2.3665    1.2159 C.2       1 <0>         0.5146
     18 O2         -1.1126    1.8010    2.1439 O.2       1 <0>        -0.4921
     19 N1         -0.3468    3.6937    1.2757 N.am      1 <0>        -0.6674
     20 C15        -0.6311    4.4008    2.4514 C.ar      1 <0>         0.1066
     21 C16        -1.0584    5.7200    2.3824 C.ar      1 <0>        -0.1016
     22 C17        -1.3434    6.4146    3.5414 C.ar      1 <0>        -0.1896
     23 C18        -1.1918    5.7983    4.7749 C.ar      1 <0>         0.1208
     24 C19        -0.7599    4.4819    4.8448 C.ar      1 <0>        -0.1313
     25 C20        -0.4800    3.7843    3.6863 C.ar      1 <0>        -0.0791
     26 O3         -1.4672    6.4846    5.9159 O.3       1 <0>        -0.3144
     27 C21        -1.9075    7.8362    5.7697 C.3       1 <0>         0.0571
     28 C22        -2.1660    8.4405    7.1513 C.3       1 <0>        -0.1155
     29 C23        -2.6375    9.8877    6.9949 C.3       1 <0>        -0.0934
     30 C24        -3.9921    9.9087    6.2839 C.3       1 <0>        -0.1542
     31 C25        -2.7763   10.5310    8.3761 C.3       1 <0>        -0.1480
     32 H3         -3.9930   -2.6552    0.3392 H         1 <0>         0.0546
     33 H4         -4.1479   -4.0897   -0.7031 H         1 <0>         0.0534
     34 H5         -3.3241   -4.2170    0.8697 H         1 <0>         0.0573
     35 H6         -2.3545   -2.5851   -1.5206 H         1 <0>         0.0603
     36 H7         -1.6856   -4.1470   -0.9902 H         1 <0>         0.0615
     37 H8         -0.3916   -4.3212    1.0902 H         1 <0>         0.0542
     38 H9         -0.2728   -2.9342    2.1994 H         1 <0>         0.0545
     39 H10        -1.8278   -3.7741    1.9881 H         1 <0>         0.0608
     40 H11         0.5719   -4.0398   -0.8998 H         1 <0>         0.1284
     41 H12         2.6324   -3.3127   -2.0323 H         1 <0>         0.1237
     42 H13         3.2118   -0.9222   -2.1257 H         1 <0>         0.1242
     43 H14         1.7267    0.7473   -1.0937 H         1 <0>         0.1291
     44 H15        -1.9516    1.9697   -1.1346 H         1 <0>         0.0835
     45 H16        -0.6872    3.2092   -1.3172 H         1 <0>         0.0821
     46 H17        -0.8793    1.8252   -3.3657 H         1 <0>         0.0646
     47 H18         0.7064    1.6001   -2.5890 H         1 <0>         0.0603
     48 H19        -0.5580    0.3607   -2.4064 H         1 <0>         0.0644
     49 H20         0.0134    4.1593    0.5048 H         1 <0>         0.4104
     50 H21        -1.1718    6.2015    1.4224 H         1 <0>         0.1293
     51 H22        -1.6803    7.4393    3.4876 H         1 <0>         0.1322
     52 H23        -0.6421    4.0026    5.8054 H         1 <0>         0.1357
     53 H24        -0.1441    2.7593    3.7409 H         1 <0>         0.1411
     54 H25        -1.1389    8.4153    5.2579 H         1 <0>         0.0615
     55 H26        -2.8277    7.8574    5.1859 H         1 <0>         0.0647
     56 H27        -2.9346    7.8614    7.6632 H         1 <0>         0.0751
     57 H28        -1.2458    8.4193    7.7352 H         1 <0>         0.0747
     58 H29        -1.9093   10.4453    6.4059 H         1 <0>         0.0725
     59 H30        -4.3279   10.9397    6.1724 H         1 <0>         0.0578
     60 H31        -3.8931    9.4504    5.2999 H         1 <0>         0.0548
     61 H32        -4.7202    9.3511    6.8729 H         1 <0>         0.0579
     62 H33        -1.8113   10.5160    8.8826 H         1 <0>         0.0566
     63 H34        -3.1122   11.5619    8.2646 H         1 <0>         0.0580
     64 H35        -3.5045    9.9733    8.9651 H         1 <0>         0.0569
@<TRIPOS>BOND
     1    1    2 1
     2    1   32 1
     3    1   33 1
     4    1   34 1
     5    2    3 1
     6    2   35 1
     7    2   36 1
     8    3    4 1
     9    3    5 1
    10    3    6 1
    11    5   37 1
    12    5   38 1
    13    5   39 1
    14    6   11 ar
    15    6    7 ar
    16    7    8 ar
    17    7   40 1
    18    8    9 ar
    19    8   41 1
    20    9   10 ar
    21    9   42 1
    22   10   11 ar
    23   10   43 1
    24   11   12 1
    25   12   13 1
    26   13   14 1
    27   13   15 1
    28   13   17 1
    29   15   16 1
    30   15   44 1
    31   15   45 1
    32   16   46 1
    33   16   47 1
    34   16   48 1
    35   17   18 2
    36   17   19 am
    37   19   20 1
    38   19   49 1
    39   20   25 ar
    40   20   21 ar
    41   21   22 ar
    42   21   50 1
    43   22   23 ar
    44   22   51 1
    45   23   24 ar
    46   23   26 1
    47   24   25 ar
    48   24   52 1
    49   25   53 1
    50   26   27 1
    51   27   28 1
    52   27   54 1
    53   27   55 1
    54   28   29 1
    55   28   56 1
    56   28   57 1
    57   29   30 1
    58   29   31 1
    59   29   58 1
    60   30   59 1
    61   30   60 1
    62   30   61 1
    63   31   62 1
    64   31   63 1
    65   31   64 1
@<TRIPOS>MOLECULE
ZINC08299491
   63    65     0     0     0
SMALL
USER_CHARGES
2-(N-cyclohexyl-N-methyl-N'-phenyl-carbamimidoyl)sulfanyl-N-(4-isopropylphenyl)acetamide
@<TRIPOS>ATOM
      1 C1         -5.4358    2.9598   -2.4050 C.3       1 <0>        -0.1462
      2 C2         -4.5123    2.7896   -3.6129 C.3       1 <0>        -0.0559
      3 C3         -4.2107    4.1607   -4.2214 C.3       1 <0>        -0.1467
      4 C4         -3.2250    2.1408   -3.1736 C.ar      1 <0>        -0.0929
      5 C5         -2.8428    0.9283   -3.7175 C.ar      1 <0>        -0.0977
      6 C6         -1.6632    0.3315   -3.3176 C.ar      1 <0>        -0.1449
      7 C7         -0.8609    0.9503   -2.3680 C.ar      1 <0>         0.1460
      8 C8         -1.2505    2.1650   -1.8191 C.ar      1 <0>        -0.1251
      9 C9         -2.4283    2.7596   -2.2278 C.ar      1 <0>        -0.0935
     10 N1          0.3349    0.3483   -1.9607 N.am      1 <0>        -0.6778
     11 C10         1.3574    1.1093   -1.5228 C.2       1 <0>         0.5317
     12 O1          1.2739    2.3187   -1.5630 O.2       1 <0>        -0.5074
     13 C11         2.6045    0.4576   -0.9833 C.3       1 <0>        -0.1425
     14 S1          3.7835    1.7354   -0.4798 S.3       1 <0>         0.0339
     15 C12         5.1062    0.7224    0.0936 C.2       1 <0>         0.3930
     16 N2          4.9974   -0.5864    0.0513 N.2       1 <0>        -0.5640
     17 C13         6.0833   -1.3731    0.3288 C.ar      1 <0>         0.1294
     18 C14         7.2884   -1.1685   -0.3462 C.ar      1 <0>        -0.1443
     19 C15         8.3801   -1.9609   -0.0575 C.ar      1 <0>        -0.1067
     20 C16         8.2796   -2.9640    0.8902 C.ar      1 <0>        -0.1377
     21 C17         7.0869   -3.1759    1.5587 C.ar      1 <0>        -0.1044
     22 C18         5.9890   -2.3872    1.2841 C.ar      1 <0>        -0.1272
     23 N3          6.2509    1.3007    0.5848 N.pl3     1 <0>        -0.6239
     24 C19         6.9312    0.7118    1.7409 C.3       1 <0>         0.0666
     25 C20         6.7917    2.5066   -0.0474 C.3       1 <0>         0.1491
     26 C21         8.2072    2.2251   -0.5554 C.3       1 <0>        -0.1262
     27 C22         8.7719    3.4845   -1.2156 C.3       1 <0>        -0.1179
     28 C23         8.8139    4.6215   -0.1927 C.3       1 <0>        -0.1226
     29 C24         7.3984    4.9030    0.3153 C.3       1 <0>        -0.1185
     30 C25         6.8336    3.6436    0.9755 C.3       1 <0>        -0.1294
     31 H1         -5.6527    1.9741   -1.9675 H         1 <0>         0.0561
     32 H2         -6.3754    3.4334   -2.7257 H         1 <0>         0.0587
     33 H3         -4.9433    3.5942   -1.6534 H         1 <0>         0.0573
     34 H4         -4.9930    2.1448   -4.3633 H         1 <0>         0.0772
     35 H5         -3.5467    4.0384   -5.0898 H         1 <0>         0.0562
     36 H6         -3.7182    4.7951   -3.4698 H         1 <0>         0.0575
     37 H7         -5.1503    4.6343   -4.5420 H         1 <0>         0.0587
     38 H8         -3.4673    0.4476   -4.4560 H         1 <0>         0.1249
     39 H9         -1.3650   -0.6152   -3.7433 H         1 <0>         0.1252
     40 H10        -0.6311    2.6464   -1.0769 H         1 <0>         0.1393
     41 H11        -2.7295    3.7066   -1.8048 H         1 <0>         0.1240
     42 H12         0.4403   -0.7460   -1.9979 H         1 <0>         0.4385
     43 H13         2.3460   -0.1657   -0.1145 H         1 <0>         0.1312
     44 H14         3.0567   -0.1714   -1.7642 H         1 <0>         0.1283
     45 H15         7.3668   -0.3890   -1.0896 H         1 <0>         0.1180
     46 H16         9.3140   -1.8011   -0.5759 H         1 <0>         0.1200
     47 H17         9.1360   -3.5846    1.1088 H         1 <0>         0.1206
     48 H18         7.0152   -3.9609    2.2971 H         1 <0>         0.1231
     49 H19         5.0585   -2.5539    1.8064 H         1 <0>         0.1223
     50 H20         7.8216    1.3094    1.9860 H         1 <0>         0.0781
     51 H21         7.2352   -0.3180    1.5021 H         1 <0>         0.0829
     52 H22         6.2476    0.7018    2.6027 H         1 <0>         0.0523
     53 H23         6.1238    2.7619   -0.8833 H         1 <0>         0.0917
     54 H24         8.8490    1.9347    0.2895 H         1 <0>         0.0680
     55 H25         8.1771    1.4076   -1.2908 H         1 <0>         0.0648
     56 H26         9.7896    3.2821   -1.5809 H         1 <0>         0.0668
     57 H27         8.1301    3.7749   -2.0604 H         1 <0>         0.0655
     58 H28         9.4557    4.3311    0.6521 H         1 <0>         0.0621
     59 H29         9.2200    5.5269   -0.6673 H         1 <0>         0.0651
     60 H30         7.4286    5.7204    1.0507 H         1 <0>         0.0671
     61 H31         6.7566    5.1934   -0.5295 H         1 <0>         0.0663
     62 H32         5.8159    3.8460    1.3407 H         1 <0>         0.0696
     63 H33         7.4753    3.3533    1.8204 H         1 <0>         0.0665
@<TRIPOS>BOND
     1    1    2 1
     2    1   31 1
     3    1   32 1
     4    1   33 1
     5    2    3 1
     6    2    4 1
     7    2   34 1
     8    3   35 1
     9    3   36 1
    10    3   37 1
    11    4    9 ar
    12    4    5 ar
    13    5    6 ar
    14    5   38 1
    15    6    7 ar
    16    6   39 1
    17    7    8 ar
    18    7   10 1
    19    8    9 ar
    20    8   40 1
    21    9   41 1
    22   10   11 am
    23   10   42 1
    24   11   12 2
    25   11   13 1
    26   13   14 1
    27   13   43 1
    28   13   44 1
    29   14   15 1
    30   15   16 2
    31   15   23 1
    32   16   17 1
    33   17   22 ar
    34   17   18 ar
    35   18   19 ar
    36   18   45 1
    37   19   20 ar
    38   19   46 1
    39   20   21 ar
    40   20   47 1
    41   21   22 ar
    42   21   48 1
    43   22   49 1
    44   23   24 1
    45   23   25 1
    46   24   50 1
    47   24   51 1
    48   24   52 1
    49   25   30 1
    50   25   26 1
    51   25   53 1
    52   26   27 1
    53   26   54 1
    54   26   55 1
    55   27   28 1
    56   27   56 1
    57   27   57 1
    58   28   29 1
    59   28   58 1
    60   28   59 1
    61   29   30 1
    62   29   60 1
    63   29   61 1
    64   30   62 1
    65   30   63 1
@<TRIPOS>MOLECULE
ZINC36562666
   75    76     0     0     0
SMALL
USER_CHARGES

@<TRIPOS>ATOM
      1 C1         -2.5655    2.4330    0.9961 C.3       1 <0>        -0.1456
      2 C2         -1.9059    1.0591    0.8612 C.3       1 <0>        -0.1516
      3 C3         -2.9843   -0.0062    0.6534 C.3       1 <0>         0.1131
      4 N1         -2.3488   -1.3041    0.4132 N.am      1 <0>        -0.5952
      5 C4         -2.1819   -2.2534    1.5165 C.3       1 <0>         0.1299
      6 H1         -1.6553   -3.1379    1.1583 H         1 <0>         0.1126
      7 C5         -3.5564   -2.6600    2.0517 C.3       1 <0>        -0.0882
      8 C6         -4.4201   -3.1765    0.8993 C.3       1 <0>        -0.1132
      9 C7         -4.8325   -2.0047    0.0061 C.3       1 <0>        -0.1660
     10 C8         -3.3900   -3.7632    3.0986 C.3       1 <0>        -0.1193
     11 C9         -2.7034   -3.1893    4.3396 C.3       1 <0>        -0.1833
     12 C10        -1.3846   -1.6064    2.6195 C.2       1 <0>         0.5196
     13 O1         -1.7658   -0.5665    3.1136 O.2       1 <0>        -0.5217
     14 N2         -0.2478   -2.1834    3.0570 N.am      1 <0>        -0.7268
     15 C11         0.4712   -1.6125    4.1986 C.3       1 <0>         0.1469
     16 C12         1.3981   -0.4970    3.7114 C.3       1 <0>        -0.1277
     17 C13         2.1490    0.0993    4.9037 C.3       1 <0>        -0.1170
     18 C14         2.9782   -0.9930    5.5821 C.3       1 <0>        -0.1228
     19 C15         2.0513   -2.1085    6.0693 C.3       1 <0>        -0.1156
     20 C16         1.3004   -2.7047    4.8771 C.3       1 <0>        -0.1278
     21 C17        -1.9176   -1.6249   -0.8228 C.2       1 <0>         0.5193
     22 O2         -1.3914   -2.6994   -1.0216 O.2       1 <0>        -0.5362
     23 C18        -2.0892   -0.6484   -1.9578 C.3       1 <0>        -0.1428
     24 C19        -1.5196   -1.2540   -3.2421 C.3       1 <0>        -0.0991
     25 C20        -1.6938   -0.2627   -4.3944 C.3       1 <0>        -0.0869
     26 C21        -3.1848   -0.0580   -4.6700 C.3       1 <0>        -0.1165
     27 C22        -3.3591    0.9334   -5.8223 C.3       1 <0>        -0.1202
     28 C23        -2.6795    0.3815   -7.0771 C.3       1 <0>        -0.1209
     29 C24        -1.1886    0.1768   -6.8015 C.3       1 <0>        -0.1201
     30 C25        -1.0143   -0.8146   -5.6492 C.3       1 <0>        -0.1141
     31 H2         -1.7972    3.1919    1.1441 H         1 <0>         0.0550
     32 H3         -3.1274    2.6569    0.0893 H         1 <0>         0.0517
     33 H4         -3.2418    2.4290    1.8509 H         1 <0>         0.0568
     34 H5         -1.2297    1.0631    0.0063 H         1 <0>         0.0545
     35 H6         -1.3440    0.8352    1.7679 H         1 <0>         0.0879
     36 H7         -3.6107   -0.0675    1.5433 H         1 <0>         0.0912
     37 H8         -3.5991    0.2619   -0.2059 H         1 <0>         0.0752
     38 H9         -4.0387   -1.7956    2.5082 H         1 <0>         0.0852
     39 H10        -3.8502   -3.8973    0.3129 H         1 <0>         0.0645
     40 H11        -5.3114   -3.6585    1.3009 H         1 <0>         0.0660
     41 H12        -3.9860   -1.7023   -0.6104 H         1 <0>         0.0651
     42 H13        -5.6587   -2.3104   -0.6358 H         1 <0>         0.0488
     43 H14        -5.1467   -1.1667    0.6283 H         1 <0>         0.0561
     44 H15        -4.3697   -4.1540    3.3735 H         1 <0>         0.0701
     45 H16        -2.7810   -4.5673    2.6855 H         1 <0>         0.0648
     46 H17        -3.1682   -2.2400    4.6058 H         1 <0>         0.0582
     47 H18        -2.8068   -3.8895    5.1686 H         1 <0>         0.0541
     48 H19        -1.6460   -3.0297    4.1287 H         1 <0>         0.0752
     49 H20         0.0942   -2.9767    2.6159 H         1 <0>         0.4008
     50 H21        -0.2450   -1.2042    4.9117 H         1 <0>         0.0887
     51 H22         2.1143   -0.9052    2.9983 H         1 <0>         0.0620
     52 H23         0.8074    0.2811    3.2280 H         1 <0>         0.0667
     53 H24         2.8094    0.8940    4.5566 H         1 <0>         0.0644
     54 H25         1.4329    0.5075    5.6168 H         1 <0>         0.0640
     55 H26         3.6944   -1.4012    4.8690 H         1 <0>         0.0625
     56 H27         3.5132   -0.5682    6.4315 H         1 <0>         0.0643
     57 H28         2.6420   -2.8866    6.5527 H         1 <0>         0.0678
     58 H29         1.3351   -1.7002    6.7825 H         1 <0>         0.0651
     59 H30         0.6400   -3.4994    5.2241 H         1 <0>         0.0694
     60 H31         2.0165   -3.1130    4.1639 H         1 <0>         0.0682
     61 H32        -3.1491   -0.4345   -2.0959 H         1 <0>         0.0967
     62 H33        -1.5594    0.2754   -1.7255 H         1 <0>         0.0955
     63 H34        -0.4597   -1.4679   -3.1040 H         1 <0>         0.0693
     64 H35        -2.0494   -2.1778   -3.4744 H         1 <0>         0.0703
     65 H36        -1.2399    0.6910   -4.1250 H         1 <0>         0.0699
     66 H37        -3.6388   -1.0117   -4.9394 H         1 <0>         0.0625
     67 H38        -3.6690    0.3352   -3.7761 H         1 <0>         0.0613
     68 H39        -4.4213    1.0792   -6.0186 H         1 <0>         0.0604
     69 H40        -2.9052    1.8870   -5.5529 H         1 <0>         0.0607
     70 H41        -3.1335   -0.5722   -7.3465 H         1 <0>         0.0609
     71 H42        -2.8037    1.0877   -7.8980 H         1 <0>         0.0597
     72 H43        -0.7044   -0.2164   -7.6954 H         1 <0>         0.0608
     73 H44        -0.7346    1.1305   -6.5321 H         1 <0>         0.0606
     74 H45         0.0479   -0.9604   -5.4528 H         1 <0>         0.0616
     75 H46        -1.4682   -1.7682   -5.9186 H         1 <0>         0.0625
@<TRIPOS>BOND
     1    1    2 1
     2    1   31 1
     3    1   32 1
     4    1   33 1
     5    2    3 1
     6    2   34 1
     7    2   35 1
     8    3    4 1
     9    3   36 1
    10    3   37 1
    11    4    5 1
    12    4   21 am
    13    5    6 1
    14    5    7 1
    15    5   12 1
    16    7    8 1
    17    7   10 1
    18    7   38 1
    19    8    9 1
    20    8   39 1
    21    8   40 1
    22    9   41 1
    23    9   42 1
    24    9   43 1
    25   10   11 1
    26   10   44 1
    27   10   45 1
    28   11   46 1
    29   11   47 1
    30   11   48 1
    31   12   13 2
    32   12   14 am
    33   14   15 1
    34   14   49 1
    35   15   20 1
    36   15   16 1
    37   15   50 1
    38   16   17 1
    39   16   51 1
    40   16   52 1
    41   17   18 1
    42   17   53 1
    43   17   54 1
    44   18   19 1
    45   18   55 1
    46   18   56 1
    47   19   20 1
    48   19   57 1
    49   19   58 1
    50   20   59 1
    51   20   60 1
    52   21   22 2
    53   21   23 1
    54   23   24 1
    55   23   61 1
    56   23   62 1
    57   24   25 1
    58   24   63 1
    59   24   64 1
    60   25   30 1
    61   25   26 1
    62   25   65 1
    63   26   27 1
    64   26   66 1
    65   26   67 1
    66   27   28 1
    67   27   68 1
    68   27   69 1
    69   28   29 1
    70   28   70 1
    71   28   71 1
    72   29   30 1
    73   29   72 1
    74   29   73 1
    75   30   74 1
    76   30   75 1
@<TRIPOS>MOLECULE
ZINC58180307
   42    44     0     0     0
SMALL
USER_CHARGES

@<TRIPOS>ATOM
      1 C1          0.1533    1.3733    0.6361 C.ar      1 <0>        -0.0831
      2 C2          1.1723    2.0901    0.0357 C.ar      1 <0>        -0.1138
      3 C3          2.2147    1.4290   -0.5858 C.ar      1 <0>        -0.0994
      4 C4          2.2410    0.0416   -0.6083 C.ar      1 <0>        -0.1405
      5 C5          1.2131   -0.6812   -0.0021 C.ar      1 <0>         0.1877
      6 C6          0.1713   -0.0090    0.6187 C.ar      1 <0>        -0.1148
      7 N1          1.2332   -2.0823   -0.0210 N.am      1 <0>        -0.6708
      8 C7          0.0818   -2.7743    0.0885 C.2       1 <0>         0.5236
      9 O1         -0.9796   -2.1874    0.1024 O.2       1 <0>        -0.5069
     10 C8          0.1132   -4.2773    0.1936 C.3       1 <0>        -0.1394
     11 C9         -1.3164   -4.8106    0.3064 C.3       1 <0>        -0.0082
     12 C10        -1.2851   -6.3136    0.4115 C.2       1 <0>         0.2012
     13 N2         -1.2197   -6.9931    1.5218 N.2       1 <0>        -0.4718
     14 C11        -1.2108   -8.3027    1.2301 C.2       1 <0>         0.0042
     15 C12        -1.2740   -8.4208   -0.1211 C.2       1 <0>        -0.0183
     16 O2         -1.3259   -7.1668   -0.6215 O.3       1 <0>        -0.1860
     17 C13        -1.2894   -9.6796   -0.8956 C.ar      1 <0>        -0.0960
     18 C14        -0.2259   -9.9940   -1.7458 C.ar      1 <0>         0.1577
     19 C15        -0.2475  -11.1729   -2.4668 C.ar      1 <0>        -0.1638
     20 C16        -1.3183  -12.0406   -2.3484 C.ar      1 <0>        -0.0429
     21 C17        -2.3747  -11.7363   -1.5089 C.ar      1 <0>        -0.1627
     22 C18        -2.3648  -10.5639   -0.7771 C.ar      1 <0>         0.1598
     23 F1         -3.3948  -10.2710    0.0466 F         1 <0>        -0.1191
     24 F2          0.8206   -9.1476   -1.8630 F         1 <0>        -0.1207
     25 S1          3.5682   -0.8045   -1.4004 S.3       1 <0>        -0.0379
     26 C19         4.6288    0.5288   -2.0235 C.3       1 <0>         0.4597
     27 F3          5.0688    1.3139   -0.9524 F         1 <0>        -0.1608
     28 F4          5.7331   -0.0229   -2.6818 F         1 <0>        -0.1425
     29 F5          3.9025    1.3235   -2.9168 F         1 <0>        -0.1600
     30 H1         -0.6567    1.8949    1.1240 H         1 <0>         0.1371
     31 H2          1.1533    3.1698    0.0524 H         1 <0>         0.1352
     32 H3          3.0084    1.9919   -1.0543 H         1 <0>         0.1278
     33 H4         -0.6262   -0.5653    1.0886 H         1 <0>         0.1580
     34 H5          2.0758   -2.5541   -0.1128 H         1 <0>         0.4134
     35 H6          0.5873   -4.6939   -0.6950 H         1 <0>         0.1073
     36 H7          0.6802   -4.5679    1.0780 H         1 <0>         0.1129
     37 H8         -1.7906   -4.3940    1.1951 H         1 <0>         0.1207
     38 H9         -1.8834   -4.5200   -0.5780 H         1 <0>         0.1064
     39 H10        -1.1621   -9.1148    1.9404 H         1 <0>         0.1896
     40 H11         0.5736  -11.4172   -3.1245 H         1 <0>         0.1518
     41 H12        -1.3297  -12.9602   -2.9146 H         1 <0>         0.1523
     42 H13        -3.2073  -12.4187   -1.4217 H         1 <0>         0.1529
@<TRIPOS>BOND
     1    1    6 ar
     2    1    2 ar
     3    1   30 1
     4    2    3 ar
     5    2   31 1
     6    3    4 ar
     7    3   32 1
     8    4    5 ar
     9    4   25 1
    10    5    6 ar
    11    5    7 1
    12    6   33 1
    13    7    8 am
    14    7   34 1
    15    8    9 2
    16    8   10 1
    17   10   11 1
    18   10   35 1
    19   10   36 1
    20   11   12 1
    21   11   37 1
    22   11   38 1
    23   12   16 1
    24   12   13 2
    25   13   14 1
    26   14   15 2
    27   14   39 1
    28   15   16 1
    29   15   17 1
    30   17   22 ar
    31   17   18 ar
    32   18   19 ar
    33   18   24 1
    34   19   20 ar
    35   19   40 1
    36   20   21 ar
    37   20   41 1
    38   21   22 ar
    39   21   42 1
    40   22   23 1
    41   25   26 1
    42   26   27 1
    43   26   28 1
    44   26   29 1
@<TRIPOS>MOLECULE
ZINC66169444
   57    59     0     0     0
SMALL
USER_CHARGES

@<TRIPOS>ATOM
      1 C1          0.2907    1.2802   -0.1349 C.3       1 <0>        -0.1792
      2 C2          0.0644   -0.2278   -0.0104 C.3       1 <0>         0.0719
      3 H1          0.5187   -0.7350   -0.8615 H         1 <0>         0.0803
      4 C3          0.7024   -0.7340    1.2849 C.3       1 <0>         0.1317
      5 N1          0.5903   -2.1934    1.3466 N.pl3     1 <0>        -0.7421
      6 C4          1.1046   -2.8875    2.4440 C.ar      1 <0>         0.2538
      7 C5          1.7177   -2.1942    3.4808 C.ar      1 <0>        -0.2329
      8 C6          2.2261   -2.8808    4.5660 C.ar      1 <0>        -0.0328
      9 C7          2.1264   -4.2582    4.6242 C.ar      1 <0>        -0.2659
     10 C8          1.5149   -4.9558    3.5921 C.ar      1 <0>         0.1753
     11 C9          0.9990   -4.2702    2.5035 C.ar      1 <0>        -0.2294
     12 O1          1.4176   -6.3100    3.6510 O.3       1 <0>        -0.3095
     13 C10         1.9666   -6.9503    4.8046 C.3       1 <0>         0.1036
     14 C11         1.7673   -8.4400    4.6947 C.ar      1 <0>        -0.0980
     15 C12         0.6186   -9.0226    5.1967 C.ar      1 <0>        -0.0953
     16 C13         0.4359  -10.3891    5.0960 C.ar      1 <0>        -0.1233
     17 C14         1.4016  -11.1730    4.4928 C.ar      1 <0>        -0.1095
     18 C15         2.5499  -10.5903    3.9900 C.ar      1 <0>        -0.1235
     19 C16         2.7307   -9.2233    4.0870 C.ar      1 <0>        -0.0955
     20 O2         -1.3386   -0.4987    0.0122 O.3       1 <0>        -0.3061
     21 C17        -1.9654   -0.6068   -1.1888 C.ar      1 <0>         0.1251
     22 C18        -1.2700   -0.3491   -2.3612 C.ar      1 <0>        -0.2077
     23 C19        -1.9093   -0.4601   -3.5808 C.ar      1 <0>        -0.0780
     24 C20        -3.2413   -0.8272   -3.6335 C.ar      1 <0>        -0.1120
     25 C21        -3.9368   -1.0841   -2.4664 C.ar      1 <0>        -0.0745
     26 C22        -3.3003   -0.9805   -1.2447 C.ar      1 <0>        -0.1482
     27 C23        -3.9364   -0.9471   -4.9652 C.3       1 <0>        -0.0538
     28 C24        -4.4480   -2.3776   -5.1466 C.3       1 <0>        -0.1455
     29 C25        -5.1158    0.0264   -5.0144 C.3       1 <0>        -0.1454
     30 H2          1.3608    1.4868   -0.1521 H         1 <0>         0.0767
     31 H3         -0.1638    1.6408   -1.0577 H         1 <0>         0.0699
     32 H4         -0.1636    1.7873    0.7162 H         1 <0>         0.0727
     33 H5          1.7542   -0.4491    1.3073 H         1 <0>         0.0822
     34 H6          0.1884   -0.2937    2.1393 H         1 <0>         0.0741
     35 H7          0.1590   -2.6777    0.6252 H         1 <0>         0.4021
     36 H8          1.7969   -1.1180    3.4377 H         1 <0>         0.1209
     37 H9          2.7028   -2.3405    5.3704 H         1 <0>         0.1237
     38 H10         2.5253   -4.7923    5.4739 H         1 <0>         0.1235
     39 H11         0.5191   -4.8111    1.7013 H         1 <0>         0.1262
     40 H12         3.0321   -6.7301    4.8699 H         1 <0>         0.0722
     41 H13         1.4639   -6.5815    5.6986 H         1 <0>         0.0723
     42 H14        -0.1359   -8.4102    5.6679 H         1 <0>         0.1243
     43 H15        -0.4613  -10.8444    5.4888 H         1 <0>         0.1257
     44 H16         1.2592  -12.2407    4.4147 H         1 <0>         0.1246
     45 H17         3.3046  -11.2028    3.5191 H         1 <0>         0.1256
     46 H18         3.6261   -8.7675    3.6908 H         1 <0>         0.1242
     47 H19        -0.2297   -0.0617   -2.3206 H         1 <0>         0.1282
     48 H20        -1.3684   -0.2597   -4.4938 H         1 <0>         0.1233
     49 H21        -4.9772   -1.3703   -2.5102 H         1 <0>         0.1278
     50 H22        -3.8427   -1.1855   -0.3336 H         1 <0>         0.1295
     51 H23        -3.2346   -0.7082   -5.7642 H         1 <0>         0.0760
     52 H24        -5.1499   -2.6165   -4.3476 H         1 <0>         0.0566
     53 H25        -4.9508   -2.4643   -6.1098 H         1 <0>         0.0582
     54 H26        -3.6078   -3.0711   -5.1115 H         1 <0>         0.0555
     55 H27        -4.7513    1.0455   -4.8852 H         1 <0>         0.0555
     56 H28        -5.6185   -0.0603   -5.9776 H         1 <0>         0.0582
     57 H29        -5.8176   -0.2125   -4.2154 H         1 <0>         0.0565
@<TRIPOS>BOND
     1    1    2 1
     2    1   30 1
     3    1   31 1
     4    1   32 1
     5    2    3 1
     6    2    4 1
     7    2   20 1
     8    4    5 1
     9    4   33 1
    10    4   34 1
    11    5    6 1
    12    5   35 1
    13    6   11 ar
    14    6    7 ar
    15    7    8 ar
    16    7   36 1
    17    8    9 ar
    18    8   37 1
    19    9   10 ar
    20    9   38 1
    21   10   11 ar
    22   10   12 1
    23   11   39 1
    24   12   13 1
    25   13   14 1
    26   13   40 1
    27   13   41 1
    28   14   19 ar
    29   14   15 ar
    30   15   16 ar
    31   15   42 1
    32   16   17 ar
    33   16   43 1
    34   17   18 ar
    35   17   44 1
    36   18   19 ar
    37   18   45 1
    38   19   46 1
    39   20   21 1
    40   21   26 ar
    41   21   22 ar
    42   22   23 ar
    43   22   47 1
    44   23   24 ar
    45   23   48 1
    46   24   25 ar
    47   24   27 1
    48   25   26 ar
    49   25   49 1
    50   26   50 1
    51   27   28 1
    52   27   29 1
    53   27   51 1
    54   28   52 1
    55   28   53 1
    56   28   54 1
    57   29   55 1
    58   29   56 1
    59   29   57 1
@<TRIPOS>MOLECULE
ZINC33534742
   60    64     0     0     0
SMALL
USER_CHARGES
(4E,5S)-5-(3-allyloxyphenyl)-4-[hydroxy(p-tolyl)methylene]-1-(6-methoxy-1,3-benzothiazol-2-yl)pyrrolidine-2,3-dione
@<TRIPOS>ATOM
      1 C1          1.3577    7.5312    7.6528 C.3       1 <0>        -0.1106
      2 C2          0.8661    7.0323    6.3185 C.ar      1 <0>        -0.0906
      3 C3         -0.4912    7.0143    6.0476 C.ar      1 <0>        -0.1356
      4 C4         -0.9487    6.5598    4.8290 C.ar      1 <0>        -0.0835
      5 C5         -0.0374    6.1161    3.8654 C.ar      1 <0>        -0.0811
      6 C6          1.3320    6.1324    4.1486 C.ar      1 <0>        -0.0490
      7 C7          1.7743    6.5948    5.3699 C.ar      1 <0>        -0.1305
      8 C8         -0.5181    5.6283    2.5607 C.2       1 <0>         0.4069
      9 C9          0.0222    6.1303    1.3951 C.2       1 <0>        -0.4909
     10 C10        -0.2461    5.6478   -0.0117 C.3       1 <0>         0.2717
     11 H1         -1.3096    5.7310   -0.2799 H         1 <0>         0.0904
     12 N1          0.5550    6.4905   -0.9042 N.am      1 <0>        -0.4963
     13 C11         1.2370    7.3834   -0.1675 C.2       1 <0>         0.4797
     14 O1          1.9911    8.2232   -0.6149 O.2       1 <0>        -0.4841
     15 C12         0.9330    7.1934    1.2759 C.2       1 <0>         0.3810
     16 O2          1.3936    7.8459    2.1950 O.3       1 <0>        -0.4803
     17 C13         0.6010    6.3840   -2.2837 C.2       1 <0>         0.4001
     18 N2         -0.0341    5.5431   -3.0658 N.2       1 <0>        -0.5317
     19 C14         0.1069    5.5529   -4.4098 C.ar      1 <0>         0.0840
     20 C15        -0.5150    4.7088   -5.3588 C.ar      1 <0>        -0.0315
     21 C16        -0.2659    4.8492   -6.6882 C.ar      1 <0>        -0.1860
     22 C17         0.6058    5.8224   -7.1680 C.ar      1 <0>         0.1284
     23 C18         1.2357    6.6698   -6.2682 C.ar      1 <0>        -0.0917
     24 C19         0.9870    6.5318   -4.9252 C.ar      1 <0>        -0.1401
     25 S1          1.5343    7.3618   -3.4529 S.3       1 <0>         0.0552
     26 O3          0.8369    5.9414   -8.5026 O.3       1 <0>        -0.3124
     27 C20         0.1500    5.0311   -9.3637 C.3       1 <0>         0.0237
     28 C21         0.1705    4.2063   -0.1512 C.ar      1 <0>        -0.0191
     29 C22         1.5060    3.8856   -0.3123 C.ar      1 <0>        -0.1399
     30 C23         1.8914    2.5642   -0.4405 C.ar      1 <0>        -0.0876
     31 C24         0.9425    1.5604   -0.4085 C.ar      1 <0>        -0.2151
     32 C25        -0.3983    1.8798   -0.2524 C.ar      1 <0>         0.1232
     33 C26        -0.7820    3.2065   -0.1186 C.ar      1 <0>        -0.0994
     34 O4         -1.3340    0.8947   -0.2262 O.3       1 <0>        -0.3104
     35 C27        -0.8662   -0.4484   -0.3651 C.3       1 <0>         0.0859
     36 C28        -2.0368   -1.3961   -0.3129 C.2       1 <0>        -0.1506
     37 C29        -2.1264   -2.3747   -1.1791 C.2       1 <0>        -0.1840
     38 O5         -1.4872    4.6900    2.5062 O.2       1 <0>        -0.6151
     39 H2          0.4990    7.8336    8.2702 H         1 <0>         0.0599
     40 H3          2.0213    8.3950    7.4994 H         1 <0>         0.0651
     41 H4          1.9116    6.7292    8.1627 H         1 <0>         0.0636
     42 H5         -1.1937    7.3576    6.7927 H         1 <0>         0.1153
     43 H6         -2.0080    6.5467    4.6190 H         1 <0>         0.1204
     44 H7          2.0415    5.7875    3.4110 H         1 <0>         0.1170
     45 H8          2.8318    6.6122    5.5884 H         1 <0>         0.1151
     46 H9         -1.1975    3.9421   -5.0230 H         1 <0>         0.1346
     47 H10        -0.7566    4.1897   -7.3888 H         1 <0>         0.1347
     48 H11         1.9158    7.4310   -6.6211 H         1 <0>         0.1379
     49 H12         0.4256    5.2361  -10.4087 H         1 <0>         0.1012
     50 H13        -0.9357    5.1571   -9.2393 H         1 <0>         0.0574
     51 H14         0.4313    3.9994   -9.1059 H         1 <0>         0.0572
     52 H15         2.2491    4.6689   -0.3383 H         1 <0>         0.1077
     53 H16         2.9350    2.3163   -0.5662 H         1 <0>         0.1163
     54 H17         1.2440    0.5283   -0.5095 H         1 <0>         0.1184
     55 H18        -1.8249    3.4575    0.0068 H         1 <0>         0.1317
     56 H19        -0.3482   -0.5584   -1.3292 H         1 <0>         0.0636
     57 H20        -0.1696   -0.6806    0.4540 H         1 <0>         0.0699
     58 H21        -2.8160   -1.2661    0.4526 H         1 <0>         0.1224
     59 H22        -2.9808   -3.0664   -1.1410 H         1 <0>         0.1078
     60 H23        -1.3472   -2.5047   -1.9446 H         1 <0>         0.0996
@<TRIPOS>BOND
     1    1    2 1
     2    1   39 1
     3    1   40 1
     4    1   41 1
     5    2    7 ar
     6    2    3 ar
     7    3    4 ar
     8    3   42 1
     9    4    5 ar
    10    4   43 1
    11    5    6 ar
    12    5    8 1
    13    6    7 ar
    14    6   44 1
    15    7   45 1
    16    8    9 1
    17    8   38 2
    18    9   15 2
    19    9   10 1
    20   10   11 1
    21   10   12 1
    22   10   28 1
    23   12   13 am
    24   12   17 1
    25   13   14 2
    26   13   15 1
    27   15   16 1
    28   17   25 1
    29   17   18 2
    30   18   19 1
    31   19   24 ar
    32   19   20 ar
    33   20   21 ar
    34   20   46 1
    35   21   22 ar
    36   21   47 1
    37   22   23 ar
    38   22   26 1
    39   23   24 ar
    40   23   48 1
    41   24   25 1
    42   26   27 1
    43   27   49 1
    44   27   50 1
    45   27   51 1
    46   28   33 ar
    47   28   29 ar
    48   29   30 ar
    49   29   52 1
    50   30   31 ar
    51   30   53 1
    52   31   32 ar
    53   31   54 1
    54   32   33 ar
    55   32   34 1
    56   33   55 1
    57   34   35 1
    58   35   36 1
    59   35   56 1
    60   35   57 1
    61   36   37 2
    62   36   58 1
    63   37   59 1
    64   37   60 1
@<TRIPOS>MOLECULE
ZINC36544621
   58    60     0     0     0
SMALL
USER_CHARGES

@<TRIPOS>ATOM
      1 C1         -0.3011    1.2899    0.3578 C.3       1 <0>        -0.1522
      2 C2         -0.6273   -0.1327   -0.1011 C.3       1 <0>        -0.1210
      3 C3          0.4297   -0.6002   -1.1037 C.3       1 <0>        -0.1324
      4 C4          0.1034   -2.0228   -1.5626 C.3       1 <0>         0.1226
      5 N1          1.1155   -2.4704   -2.5226 N.am      1 <0>        -0.7257
      6 C5          1.0319   -3.7014   -3.0651 C.2       1 <0>         0.5179
      7 O1          0.1189   -4.4385   -2.7585 O.2       1 <0>        -0.5039
      8 C6          2.0730   -4.1618   -4.0526 C.3       1 <0>         0.1819
      9 H1          3.0022   -3.6185   -3.8808 H         1 <0>         0.1025
     10 C7          1.5878   -3.8964   -5.4545 C.ar      1 <0>        -0.0980
     11 C8          0.5335   -4.6276   -5.9699 C.ar      1 <0>        -0.0792
     12 C9          0.0871   -4.3866   -7.2548 C.ar      1 <0>        -0.1452
     13 C10         0.6973   -3.4096   -8.0280 C.ar      1 <0>         0.1087
     14 C11         1.7546   -2.6770   -7.5084 C.ar      1 <0>        -0.1455
     15 C12         2.1939   -2.9183   -6.2211 C.ar      1 <0>        -0.0725
     16 O2          0.2603   -3.1709   -9.2925 O.3       1 <0>        -0.4985
     17 N2          2.3079   -5.5976   -3.8808 N.am      1 <0>        -0.5698
     18 C13         1.5397   -6.3277   -2.9674 C.ar      1 <0>         0.1794
     19 C14         0.3875   -6.9776   -3.3899 C.ar      1 <0>        -0.0798
     20 C15        -0.3684   -7.6980   -2.4860 C.ar      1 <0>        -0.0978
     21 C16         0.0202   -7.7725   -1.1608 C.ar      1 <0>        -0.1084
     22 C17         1.1667   -7.1269   -0.7359 C.ar      1 <0>        -0.1080
     23 C18         1.9311   -6.4089   -1.6364 C.ar      1 <0>        -0.0332
     24 Cl1         3.3744   -5.6045   -1.1041 Cl        1 <0>        -0.0670
     25 C19         3.2640   -6.2152   -4.6026 C.2       1 <0>         0.6048
     26 O3          4.0043   -5.5640   -5.3144 O.2       1 <0>        -0.5006
     27 C20         3.4123   -7.6809   -4.5291 C.ar      1 <0>        -0.2753
     28 C21         2.2902   -8.5068   -4.6331 C.ar      1 <0>         0.0239
     29 C22         2.4355   -9.8752   -4.5637 C.ar      1 <0>        -0.1850
     30 C23         3.6901  -10.4371   -4.3911 C.ar      1 <0>        -0.0080
     31 C24         4.8073   -9.6327   -4.2864 C.ar      1 <0>        -0.2398
     32 C25         4.6804   -8.2535   -4.3604 C.ar      1 <0>         0.3362
     33 O4          5.7779   -7.4621   -4.2638 O.3       1 <0>        -0.6408
     34 N3          1.2457  -10.7490   -4.6736 N.pl3     1 <0>         0.0752
     35 O5          0.1496  -10.2616   -4.8238 O.2       1 <0>        -0.2174
     36 O6          1.3701  -11.9500   -4.6130 O.3       1 <0>        -0.2223
     37 H2          0.6803    1.3027    0.8320 H         1 <0>         0.0544
     38 H3         -0.2970    1.9576   -0.5037 H         1 <0>         0.0538
     39 H4         -1.0541    1.6229    1.0721 H         1 <0>         0.0548
     40 H5         -0.6313   -0.8005    0.7604 H         1 <0>         0.0652
     41 H6         -1.6087   -0.1455   -0.5753 H         1 <0>         0.0645
     42 H7          0.4337    0.0675   -1.9652 H         1 <0>         0.0689
     43 H8          1.4110   -0.5874   -0.6295 H         1 <0>         0.0697
     44 H9          0.0994   -2.6906   -0.7011 H         1 <0>         0.0683
     45 H10        -0.8780   -2.0356   -2.0368 H         1 <0>         0.0672
     46 H11         1.8457   -1.8809   -2.7678 H         1 <0>         0.4003
     47 H12         0.0589   -5.3881   -5.3676 H         1 <0>         0.1300
     48 H13        -0.7359   -4.9585   -7.6573 H         1 <0>         0.1298
     49 H14         2.2313   -1.9159   -8.1083 H         1 <0>         0.1295
     50 H15         3.0141   -2.3452   -5.8145 H         1 <0>         0.1287
     51 H16        -0.4350   -2.5012   -9.3485 H         1 <0>         0.3871
     52 H17         0.0827   -6.9196   -4.4244 H         1 <0>         0.1277
     53 H18        -1.2645   -8.2035   -2.8143 H         1 <0>         0.1311
     54 H19        -0.5734   -8.3360   -0.4561 H         1 <0>         0.1273
     55 H20         1.4673   -7.1867    0.2997 H         1 <0>         0.1283
     56 H21         1.3102   -8.0732   -4.7674 H         1 <0>         0.1356
     57 H22         3.7948  -11.5107   -4.3377 H         1 <0>         0.1269
     58 H23         5.7818  -10.0781   -4.1513 H         1 <0>         0.1254
@<TRIPOS>BOND
     1    1    2 1
     2    1   37 1
     3    1   38 1
     4    1   39 1
     5    2    3 1
     6    2   40 1
     7    2   41 1
     8    3    4 1
     9    3   42 1
    10    3   43 1
    11    4    5 1
    12    4   44 1
    13    4   45 1
    14    5    6 am
    15    5   46 1
    16    6    7 2
    17    6    8 1
    18    8    9 1
    19    8   10 1
    20    8   17 1
    21   10   15 ar
    22   10   11 ar
    23   11   12 ar
    24   11   47 1
    25   12   13 ar
    26   12   48 1
    27   13   14 ar
    28   13   16 1
    29   14   15 ar
    30   14   49 1
    31   15   50 1
    32   16   51 1
    33   17   18 1
    34   17   25 am
    35   18   23 ar
    36   18   19 ar
    37   19   20 ar
    38   19   52 1
    39   20   21 ar
    40   20   53 1
    41   21   22 ar
    42   21   54 1
    43   22   23 ar
    44   22   55 1
    45   23   24 1
    46   25   26 2
    47   25   27 1
    48   27   32 ar
    49   27   28 ar
    50   28   29 ar
    51   28   56 1
    52   29   30 ar
    53   29   34 1
    54   30   31 ar
    55   30   57 1
    56   31   32 ar
    57   31   58 1
    58   32   33 1
    59   34   35 2
    60   34   36 1
@<TRIPOS>MOLECULE
ZINC40838362
   51    55     0     0     0
SMALL
USER_CHARGES

@<TRIPOS>ATOM
      1 C1          0.6220    1.5023    0.0277 C.3       1 <0>        -0.0340
      2 C2          0.4497    0.0053    0.0087 C.2       1 <0>        -0.3701
      3 C3          0.4340   -0.8071   -1.1327 C.2       1 <0>         0.1190
      4 N1          0.2652   -2.0437   -0.7515 N.2       1 <0>        -0.3851
      5 O1          0.1667   -2.0594    0.6610 O.3       1 <0>        -0.1666
      6 C4          0.2882   -0.7939    1.0962 C.2       1 <0>         0.3957
      7 N2          0.2521   -0.3786    2.4144 N.2       1 <0>        -1.0225
      8 S1          0.0469   -1.4879    3.6267 S.o2      1 <0>         2.6104
      9 O2         -1.2609   -2.0217    3.4717 O.2       1 <0>        -1.0152
     10 O3          1.2084   -2.3065    3.6290 O.2       1 <0>        -1.0162
     11 C5          0.0520   -0.6021    5.1498 C.ar      1 <0>        -0.6285
     12 C6          1.2430   -0.3874    5.8190 C.ar      1 <0>        -0.0011
     13 C7          1.2505    0.3070    7.0128 C.ar      1 <0>        -0.1653
     14 C8          0.0602    0.7898    7.5412 C.ar      1 <0>         0.1804
     15 C9         -1.1343    0.5724    6.8665 C.ar      1 <0>        -0.1421
     16 C10        -1.1342   -0.1182    5.6704 C.ar      1 <0>        -0.0005
     17 N3          0.0643    1.4928    8.7499 N.am      1 <0>        -0.6635
     18 C11        -0.9820    1.3894    9.5931 C.2       1 <0>         0.5992
     19 O4         -1.8858    0.6116    9.3490 O.2       1 <0>        -0.4765
     20 C12        -1.0315    2.2140   10.8046 C.2       1 <0>        -0.2080
     21 C13        -1.9927    2.2489   11.7737 C.2       1 <0>         0.0273
     22 C14        -1.8526    3.1154   12.8640 C.ar      1 <0>        -0.1002
     23 C15        -2.7666    3.3082   14.0119 C.ar      1 <0>         0.0020
     24 C16        -3.9504    2.5706   14.1039 C.ar      1 <0>        -0.1322
     25 C17        -4.7813    2.7612   15.1701 C.ar      1 <0>        -0.1010
     26 C18        -4.4630    3.6807   16.1642 C.ar      1 <0>        -0.1169
     27 C19        -3.3160    4.4138   16.1011 C.ar      1 <0>        -0.0987
     28 C20        -2.4387    4.2410   15.0166 C.ar      1 <0>        -0.0605
     29 C21        -1.2450    4.9897   14.9319 C.ar      1 <0>        -0.0542
     30 C22        -0.4042    4.8167   13.8812 C.ar      1 <0>        -0.0873
     31 C23        -0.6870    3.9087   12.8692 C.ar      1 <0>        -0.0846
     32 S2          0.1532    3.4162   11.3837 S.3       1 <0>         0.1405
     33 Cl1        -3.3863    1.2207   11.6536 Cl        1 <0>        -0.0077
     34 C24         0.5855   -0.3342   -2.5555 C.3       1 <0>        -0.0730
     35 H1          1.6823    1.7452    0.0973 H         1 <0>         0.0356
     36 H2          0.2113    1.9270   -0.8883 H         1 <0>         0.0373
     37 H3          0.0969    1.9176    0.8880 H         1 <0>         0.0573
     38 H4          2.1681   -0.7633    5.4078 H         1 <0>         0.1437
     39 H5          2.1810    0.4740    7.5351 H         1 <0>         0.1320
     40 H6         -2.0616    0.9462    7.2748 H         1 <0>         0.1400
     41 H7         -2.0621   -0.2840    5.1433 H         1 <0>         0.1429
     42 H8          0.8201    2.0549    8.9815 H         1 <0>         0.4105
     43 H9         -4.2060    1.8550   13.3365 H         1 <0>         0.1479
     44 H10        -5.6963    2.1920   15.2424 H         1 <0>         0.1279
     45 H11        -5.1354    3.8159   16.9985 H         1 <0>         0.1268
     46 H12        -3.0824    5.1243   16.8802 H         1 <0>         0.1328
     47 H13        -1.0005    5.7026   15.7055 H         1 <0>         0.1437
     48 H14         0.5047    5.3977   13.8307 H         1 <0>         0.1393
     49 H15         1.6406   -0.3374   -2.8291 H         1 <0>         0.0753
     50 H16         0.0358   -1.0005   -3.2203 H         1 <0>         0.0675
     51 H17         0.1898    0.6773   -2.6463 H         1 <0>         0.0763
@<TRIPOS>BOND
     1    1    2 1
     2    1   35 1
     3    1   36 1
     4    1   37 1
     5    2    6 2
     6    2    3 1
     7    3    4 2
     8    3   34 1
     9    4    5 1
    10    5    6 1
    11    6    7 1
    12    7    8 1
    13    8    9 2
    14    8   10 2
    15    8   11 1
    16   11   16 ar
    17   11   12 ar
    18   12   13 ar
    19   12   38 1
    20   13   14 ar
    21   13   39 1
    22   14   15 ar
    23   14   17 1
    24   15   16 ar
    25   15   40 1
    26   16   41 1
    27   17   18 am
    28   17   42 1
    29   18   19 2
    30   18   20 1
    31   20   32 1
    32   20   21 2
    33   21   22 1
    34   21   33 1
    35   22   31 ar
    36   22   23 ar
    37   23   28 ar
    38   23   24 ar
    39   24   25 ar
    40   24   43 1
    41   25   26 ar
    42   25   44 1
    43   26   27 ar
    44   26   45 1
    45   27   28 ar
    46   27   46 1
    47   28   29 ar
    48   29   30 ar
    49   29   47 1
    50   30   31 ar
    51   30   48 1
    52   31   32 1
    53   34   49 1
    54   34   50 1
    55   34   51 1
@<TRIPOS>MOLECULE
ZINC08758687
   60    64     0     0     0
SMALL
USER_CHARGES

@<TRIPOS>ATOM
      1 C1         -0.5837   -6.7641    5.0004 C.3       1 <0>        -0.1048
      2 C2         -0.5801   -6.0720    3.6617 C.ar      1 <0>         0.1960
      3 C3         -0.5871   -6.8117    2.4895 C.ar      1 <0>        -0.2947
      4 C4         -0.5839   -6.1354    1.2795 C.ar      1 <0>         0.1965
      5 N1         -0.5743   -4.8127    1.2800 N.ar      1 <0>        -0.5821
      6 C5         -0.5678   -4.1360    2.4183 C.ar      1 <0>         0.5661
      7 N2         -0.5757   -4.7512    3.5909 N.ar      1 <0>        -0.4661
      8 N3         -0.5578   -2.7480    2.3813 N.pl3     1 <0>        -0.6360
      9 C6         -0.4383   -2.0339    3.5416 C.2       1 <0>         0.5743
     10 N4         -0.2191   -2.6620    4.6855 N.2       1 <0>        -0.6619
     11 C7         -0.1020   -1.9618    5.8232 C.2       1 <0>         0.4988
     12 O1         -0.1973   -0.7471    5.8036 O.2       1 <0>        -0.5568
     13 C8          0.1427   -2.6631    7.1005 C.ar      1 <0>        -0.0584
     14 C9          0.3792   -4.0288    7.1159 C.ar      1 <0>        -0.0859
     15 C10         0.6095   -4.6945    8.3134 C.ar      1 <0>        -0.1233
     16 C11         0.6098   -4.0280    9.5021 C.ar      1 <0>        -0.1203
     17 C12         0.3745   -2.6427    9.5337 C.ar      1 <0>        -0.0593
     18 C13         0.1440   -1.9462    8.3223 C.ar      1 <0>        -0.0329
     19 C14        -0.0851   -0.5638    8.3546 C.ar      1 <0>        -0.0930
     20 C15        -0.0771    0.0938    9.5478 C.ar      1 <0>        -0.1478
     21 C16         0.1559   -0.5883   10.7399 C.ar      1 <0>        -0.1185
     22 C17         0.3688   -1.9330   10.7471 C.ar      1 <0>        -0.1278
     23 N5         -0.5450   -0.6744    3.5197 N.2       1 <0>        -0.6436
     24 C18        -0.6745    0.0297    2.2416 C.3       1 <0>         0.0713
     25 C19        -0.6525    1.5398    2.4866 C.3       1 <0>        -0.0227
     26 C20        -0.9075    2.2629    1.1893 C.2       1 <0>        -0.1400
     27 C21         0.0210    2.7331    0.3415 C.2       1 <0>         0.0409
     28 N6         -0.5852    3.3311   -0.7296 N.pl3     1 <0>        -0.5962
     29 H1         -0.1203    3.7441   -1.4740 H         1 <0>         0.4139
     30 C22        -1.9542    3.2583   -0.5936 C.ar      1 <0>         0.0990
     31 C23        -2.2155    2.5805    0.6111 C.ar      1 <0>        -0.0915
     32 C24        -3.5336    2.3522    1.0109 C.ar      1 <0>        -0.0481
     33 C25        -4.5714    2.7905    0.2183 C.ar      1 <0>        -0.0669
     34 C26        -4.3122    3.4565   -0.9728 C.ar      1 <0>        -0.0929
     35 C27        -3.0170    3.6965   -1.3760 C.ar      1 <0>        -0.1235
     36 Cl1        -6.2121    2.5086    0.7105 Cl        1 <0>        -0.0800
     37 C28        -0.5908   -6.8977   -0.0204 C.3       1 <0>        -0.0994
     38 H2         -1.6069   -6.8365    5.3692 H         1 <0>         0.0789
     39 H3         -0.1644   -7.7645    4.8933 H         1 <0>         0.0703
     40 H4          0.0175   -6.1918    5.7069 H         1 <0>         0.0858
     41 H5         -0.5945   -7.8913    2.5182 H         1 <0>         0.1312
     42 H6         -0.6355   -2.2849    1.5326 H         1 <0>         0.4103
     43 H7          0.3841   -4.5810    6.1878 H         1 <0>         0.1479
     44 H8          0.7912   -5.7591    8.3021 H         1 <0>         0.1154
     45 H9          0.7908   -4.5653   10.4214 H         1 <0>         0.1158
     46 H10        -0.2667   -0.0224    7.4379 H         1 <0>         0.1776
     47 H11        -0.2536    1.1591    9.5698 H         1 <0>         0.1137
     48 H12         0.1574   -0.0442   11.6728 H         1 <0>         0.1109
     49 H13         0.5470   -2.4493   11.6788 H         1 <0>         0.1161
     50 H14         0.1550   -0.2448    1.5899 H         1 <0>         0.0081
     51 H15        -1.6161   -0.2478    1.7677 H         1 <0>         0.0105
     52 H16        -1.4271    1.8022    3.2072 H         1 <0>         0.0700
     53 H17         0.3221    1.8300    2.8789 H         1 <0>         0.0659
     54 H18         1.0885    2.6518    0.4839 H         1 <0>         0.1706
     55 H19        -3.7384    1.8344    1.9362 H         1 <0>         0.1347
     56 H20        -5.1344    3.7953   -1.5857 H         1 <0>         0.1319
     57 H21        -2.8272    4.2139   -2.3048 H         1 <0>         0.1253
     58 H22        -1.6201   -7.0743   -0.3326 H         1 <0>         0.0774
     59 H23        -0.0739   -6.3173   -0.7847 H         1 <0>         0.0749
     60 H24        -0.0834   -7.8527    0.1157 H         1 <0>         0.0745
@<TRIPOS>BOND
     1    1    2 1
     2    1   38 1
     3    1   39 1
     4    1   40 1
     5    2    7 ar
     6    2    3 ar
     7    3    4 ar
     8    3   41 1
     9    4    5 ar
    10    4   37 1
    11    5    6 ar
    12    6    7 ar
    13    6    8 1
    14    8    9 1
    15    8   42 1
    16    9   10 2
    17    9   23 1
    18   10   11 1
    19   11   12 2
    20   11   13 1
    21   13   18 ar
    22   13   14 ar
    23   14   15 ar
    24   14   43 1
    25   15   16 ar
    26   15   44 1
    27   16   17 ar
    28   16   45 1
    29   17   22 ar
    30   17   18 ar
    31   18   19 ar
    32   19   20 ar
    33   19   46 1
    34   20   21 ar
    35   20   47 1
    36   21   22 ar
    37   21   48 1
    38   22   49 1
    39   23   24 1
    40   24   25 1
    41   24   50 1
    42   24   51 1
    43   25   26 1
    44   25   52 1
    45   25   53 1
    46   26   31 1
    47   26   27 2
    48   27   28 1
    49   27   54 1
    50   28   29 1
    51   28   30 1
    52   30   35 ar
    53   30   31 ar
    54   31   32 ar
    55   32   33 ar
    56   32   55 1
    57   33   34 ar
    58   33   36 1
    59   34   35 ar
    60   34   56 1
    61   35   57 1
    62   37   58 1
    63   37   59 1
    64   37   60 1
@<TRIPOS>MOLECULE
ZINC59859219
   51    55     0     0     0
SMALL
USER_CHARGES

@<TRIPOS>ATOM
      1 C1          2.4380    1.0348    0.0924 C.3       1 <0>        -0.1176
      2 C2          1.2684    0.1166   -0.1528 C.ar      1 <0>        -0.0587
      3 C3          1.2037   -0.6249   -1.3165 C.ar      1 <0>        -0.1138
      4 C4          0.1309   -1.4674   -1.5423 C.ar      1 <0>        -0.0999
      5 C5         -0.8805   -1.5703   -0.6046 C.ar      1 <0>        -0.1165
      6 C6         -0.8215   -0.8316    0.5607 C.ar      1 <0>        -0.0893
      7 C7          0.2578    0.0109    0.7931 C.ar      1 <0>         0.1118
      8 N1          0.3237    0.7569    1.9771 N.am      1 <0>        -0.5142
      9 C8         -0.2330    1.9826    2.0032 C.2       1 <0>         0.5723
     10 O1         -0.7796    2.4202    1.0085 O.2       1 <0>        -0.4748
     11 C9         -0.1840    2.7940    3.2272 C.ar      1 <0>        -0.1718
     12 C10        -0.7457    4.0621    3.2954 C.ar      1 <0>         0.0229
     13 C11        -0.6751    4.7931    4.4729 C.ar      1 <0>        -0.1381
     14 C12        -0.0538    4.2886    5.5941 C.ar      1 <0>        -0.0108
     15 C13         0.5237    3.0119    5.5600 C.ar      1 <0>        -0.0930
     16 C14         0.4572    2.2620    4.3689 C.ar      1 <0>         0.0453
     17 C15         1.0315    0.9704    4.3042 C.ar      1 <0>        -0.1572
     18 C16         1.6626    0.4479    5.4296 C.ar      1 <0>         0.0406
     19 C17         1.7277    1.1827    6.5991 C.ar      1 <0>        -0.0876
     20 C18         1.1717    2.4510    6.6863 C.ar      1 <0>         0.3318
     21 N2          1.2518    3.1643    7.8678 N.pl3     1 <0>        -0.7100
     22 C19         0.2090    3.0980    8.7964 C.ar      1 <0>         0.1829
     23 C20        -0.8463    2.2145    8.5946 C.ar      1 <0>        -0.1831
     24 C21        -1.8803    2.1443    9.5082 C.ar      1 <0>        -0.0898
     25 C22        -1.8738    2.9515   10.6295 C.ar      1 <0>        -0.0370
     26 C23        -0.8174    3.8429   10.8421 C.ar      1 <0>        -0.0841
     27 C24         0.2300    3.9084    9.9201 C.ar      1 <0>        -0.1137
     28 C25        -0.8064    4.7063   12.0375 C.2       1 <0>         0.5165
     29 O2          0.1187    5.4850   12.2210 O.co2     1 <0>        -0.6854
     30 O3         -1.7224    4.6438   12.8454 O.co2     1 <0>        -0.6558
     31 Cl1        -3.1764    2.8597   11.7734 Cl        1 <0>        -0.0469
     32 N3          2.4034    0.6044    7.7822 N.pl3     1 <0>         0.0357
     33 O4          2.8024   -0.5365    7.7528 O.2       1 <0>        -0.1663
     34 O5          2.5565    1.2729    8.7778 O.3       1 <0>        -0.1150
     35 C26         0.9365    0.2198    3.0485 C.2       1 <0>         0.5755
     36 O6          1.4188   -0.8949    2.9730 O.2       1 <0>        -0.4698
     37 H1          3.2275    0.4878    0.6078 H         1 <0>         0.0766
     38 H2          2.8153    1.4051   -0.8608 H         1 <0>         0.0759
     39 H3          2.1172    1.8755    0.7076 H         1 <0>         0.0588
     40 H4          1.9916   -0.5461   -2.0509 H         1 <0>         0.1311
     41 H5          0.0825   -2.0461   -2.4528 H         1 <0>         0.1296
     42 H6         -1.7175   -2.2287   -0.7841 H         1 <0>         0.1314
     43 H7         -1.6116   -0.9124    1.2925 H         1 <0>         0.1255
     44 H8         -1.2382    4.4806    2.4301 H         1 <0>         0.1546
     45 H9         -1.1161    5.7782    4.5110 H         1 <0>         0.1519
     46 H10        -0.0113    4.8768    6.4989 H         1 <0>         0.1553
     47 H11         2.1036   -0.5371    5.3891 H         1 <0>         0.1742
     48 H12         2.0316    3.7109    8.0525 H         1 <0>         0.4263
     49 H13        -0.8575    1.5811    7.7200 H         1 <0>         0.1078
     50 H14        -2.6966    1.4563    9.3451 H         1 <0>         0.1257
     51 H15         1.0511    4.5914   10.0804 H         1 <0>         0.1399
@<TRIPOS>BOND
     1    1    2 1
     2    1   37 1
     3    1   38 1
     4    1   39 1
     5    2    7 ar
     6    2    3 ar
     7    3    4 ar
     8    3   40 1
     9    4    5 ar
    10    4   41 1
    11    5    6 ar
    12    5   42 1
    13    6    7 ar
    14    6   43 1
    15    7    8 1
    16    8   35 am
    17    8    9 am
    18    9   10 2
    19    9   11 1
    20   11   16 ar
    21   11   12 ar
    22   12   13 ar
    23   12   44 1
    24   13   14 ar
    25   13   45 1
    26   14   15 ar
    27   14   46 1
    28   15   20 ar
    29   15   16 ar
    30   16   17 ar
    31   17   18 ar
    32   17   35 1
    33   18   19 ar
    34   18   47 1
    35   19   20 ar
    36   19   32 1
    37   20   21 1
    38   21   22 1
    39   21   48 1
    40   22   27 ar
    41   22   23 ar
    42   23   24 ar
    43   23   49 1
    44   24   25 ar
    45   24   50 1
    46   25   26 ar
    47   25   31 1
    48   26   27 ar
    49   26   28 1
    50   27   51 1
    51   28   29 2
    52   28   30 1
    53   32   33 2
    54   32   34 1
    55   35   36 2
@<TRIPOS>MOLECULE
ZINC13397039
   53    57     0     0     0
SMALL
USER_CHARGES
2-[[3-(3,4-dimethylphenyl)-4-oxo-5,6,7,8-tetrahydrobenzothiopheno[2,3-d]pyrimidin-2-yl]sulfanylmethyl]furan-3-carboxylic acid
@<TRIPOS>ATOM
      1 C1         -2.5736    5.1661   -7.7048 C.3       1 <0>        -0.1191
      2 C2         -2.9202    5.5816   -6.2982 C.ar      1 <0>        -0.0674
      3 C3         -2.7496    6.8965   -5.9052 C.ar      1 <0>        -0.1052
      4 C4         -3.0713    7.2814   -4.6185 C.ar      1 <0>        -0.0832
      5 C5         -3.5565    6.3443   -3.7159 C.ar      1 <0>         0.0919
      6 C6         -3.7271    5.0252   -4.1135 C.ar      1 <0>        -0.0833
      7 C7         -3.4085    4.6475   -5.4035 C.ar      1 <0>        -0.0813
      8 C8         -3.5929    3.2156   -5.8359 C.3       1 <0>        -0.1151
      9 N1         -3.8788    6.7305   -2.4082 N.am      1 <0>        -0.4715
     10 C9         -5.1261    7.1542   -2.1332 C.2       1 <0>         0.5641
     11 O1         -5.9698    7.2032   -3.0117 O.2       1 <0>        -0.5154
     12 C10        -5.4482    7.5469   -0.7957 C.2       1 <0>        -0.2688
     13 C11        -6.7280    8.0339   -0.2770 C.2       1 <0>        -0.0382
     14 C12        -6.7793    8.3419    1.0346 C.2       1 <0>        -0.1853
     15 S1         -5.1512    8.0072    1.6504 S.3       1 <0>         0.1368
     16 C13        -4.4034    7.4527    0.1390 C.2       1 <0>         0.1378
     17 N2         -3.1932    7.0205   -0.1949 N.2       1 <0>        -0.4998
     18 C14        -2.9204    6.6695   -1.4354 C.2       1 <0>         0.3839
     19 S2         -1.3013    6.1074   -1.8441 S.3       1 <0>         0.0684
     20 C15        -0.5049    6.2383   -0.2239 C.3       1 <0>        -0.0176
     21 C16         0.9316    5.7962   -0.3331 C.2       1 <0>        -0.0090
     22 C17         1.9950    6.6013   -0.6234 C.2       1 <0>        -0.1586
     23 C18         3.1718    5.7194   -0.6176 C.2       1 <0>        -0.1766
     24 C19         2.7116    4.4925   -0.3299 C.2       1 <0>        -0.0510
     25 O2          1.3804    4.5484   -0.1683 O.3       1 <0>        -0.1847
     26 C20         1.9693    8.0495   -0.8872 C.2       1 <0>         0.5123
     27 O3          0.9152    8.6538   -0.8586 O.co2     1 <0>        -0.6218
     28 C21        -7.9600    8.8561    1.8008 C.3       1 <0>        -0.0317
     29 C22        -9.0169    9.3376    0.7965 C.3       1 <0>        -0.1145
     30 C23        -9.2023    8.2601   -0.2759 C.3       1 <0>        -0.1208
     31 C24        -7.9597    8.1923   -1.1642 C.3       1 <0>        -0.0590
     32 H1         -3.4493    5.2804   -8.3436 H         1 <0>         0.0732
     33 H2         -1.7655    5.7939   -8.0803 H         1 <0>         0.0699
     34 H3         -2.2552    4.1237   -7.7077 H         1 <0>         0.0731
     35 H4         -2.3683    7.6240   -6.6064 H         1 <0>         0.1342
     36 H5         -2.9417    8.3093   -4.3134 H         1 <0>         0.1297
     37 H6         -4.1082    4.2950   -3.4150 H         1 <0>         0.1259
     38 H7         -4.5968    3.0845   -6.2397 H         1 <0>         0.0717
     39 H8         -2.8579    2.9700   -6.6024 H         1 <0>         0.0742
     40 H9         -3.4574    2.5568   -4.9782 H         1 <0>         0.0673
     41 H10        -1.0276    5.6020    0.4903 H         1 <0>         0.1085
     42 H11        -0.5418    7.2731    0.1165 H         1 <0>         0.1503
     43 H12         4.1970    6.0016   -0.8069 H         1 <0>         0.1542
     44 H13         3.3155    3.6010   -0.2463 H         1 <0>         0.2022
     45 H14        -8.3748    8.0573    2.4156 H         1 <0>         0.0818
     46 H15        -7.6518    9.6862    2.4365 H         1 <0>         0.0814
     47 H16        -9.9620    9.5059    1.3129 H         1 <0>         0.0726
     48 H17        -8.6826   10.2642    0.3299 H         1 <0>         0.0686
     49 H18        -9.3572    7.2939    0.2044 H         1 <0>         0.0647
     50 H19       -10.0708    8.5037   -0.8878 H         1 <0>         0.0682
     51 H20        -7.8758    9.1107   -1.7452 H         1 <0>         0.0771
     52 H21        -8.0376    7.3381   -1.8369 H         1 <0>         0.0845
     53 O4          3.1146    8.7052   -1.1603 O.co2     1 <0>        -0.7498
@<TRIPOS>BOND
     1    1    2 1
     2    1   32 1
     3    1   33 1
     4    1   34 1
     5    2    7 ar
     6    2    3 ar
     7    3    4 ar
     8    3   35 1
     9    4    5 ar
    10    4   36 1
    11    5    6 ar
    12    5    9 1
    13    6    7 ar
    14    6   37 1
    15    7    8 1
    16    8   38 1
    17    8   39 1
    18    8   40 1
    19    9   18 1
    20    9   10 am
    21   10   11 2
    22   10   12 1
    23   12   16 2
    24   12   13 1
    25   13   31 1
    26   13   14 2
    27   14   15 1
    28   14   28 1
    29   15   16 1
    30   16   17 1
    31   17   18 2
    32   18   19 1
    33   19   20 1
    34   20   21 1
    35   20   41 1
    36   20   42 1
    37   21   25 1
    38   21   22 2
    39   22   23 1
    40   22   26 1
    41   23   24 2
    42   23   43 1
    43   24   25 1
    44   24   44 1
    45   26   27 2
    46   26   53 1
    47   28   29 1
    48   28   45 1
    49   28   46 1
    50   29   30 1
    51   29   47 1
    52   29   48 1
    53   30   31 1
    54   30   49 1
    55   30   50 1
    56   31   51 1
    57   31   52 1
@<TRIPOS>MOLECULE
ZINC08988061
   49    53     0     0     0
SMALL
USER_CHARGES
(5R)-4-(4-chlorobenzoyl)-3-hydroxy-1-(6-methoxy-1,3-benzothiazol-2-yl)-5-phenyl-5H-pyrrol-2-one
@<TRIPOS>ATOM
      1 C1         -0.9126    0.7917   -1.8583 C.3       1 <0>         0.0239
      2 O1         -1.2812    1.2505   -0.5561 O.3       1 <0>        -0.3125
      3 C2         -2.5296    0.9336   -0.1204 C.ar      1 <0>         0.1270
      4 C3         -3.3924    0.1992   -0.9288 C.ar      1 <0>        -0.1855
      5 C4         -4.6439   -0.1358   -0.5155 C.ar      1 <0>        -0.0338
      6 C5         -5.1209    0.2631    0.7546 C.ar      1 <0>         0.0849
      7 C6         -4.2254    1.0121    1.5519 C.ar      1 <0>        -0.1418
      8 C7         -2.9608    1.3432    1.1329 C.ar      1 <0>        -0.0904
      9 S1         -5.1803    1.3046    3.0212 S.3       1 <0>         0.0576
     10 C8         -6.6585    0.4437    2.5035 C.2       1 <0>         0.4052
     11 N1         -6.3299    0.0178    1.3064 N.2       1 <0>        -0.5388
     12 N2         -7.8475    0.2700    3.1905 N.am      1 <0>        -0.5050
     13 C9         -9.0307   -0.4474    2.7013 C.3       1 <0>         0.2676
     14 H1         -8.7671   -1.4870    2.4568 H         1 <0>         0.0868
     15 C10       -10.0590   -0.3654    3.8053 C.2       1 <0>        -0.4849
     16 C11        -9.4954    0.3439    4.8118 C.2       1 <0>         0.2735
     17 C12        -8.1248    0.7338    4.4226 C.2       1 <0>         0.5129
     18 O2         -7.3607    1.3783    5.1132 O.2       1 <0>        -0.4847
     19 O3        -10.0925    0.6467    5.9875 O.3       1 <0>        -0.6324
     20 C13       -11.4084   -0.9371    3.7874 C.2       1 <0>         0.5067
     21 O4        -12.3798   -0.2045    3.8015 O.2       1 <0>        -0.4603
     22 C14       -11.5892   -2.4036    3.7523 C.ar      1 <0>        -0.1321
     23 C15       -10.4782   -3.2487    3.8063 C.ar      1 <0>        -0.0538
     24 C16       -10.6538   -4.6159    3.7780 C.ar      1 <0>        -0.1257
     25 C17       -11.9281   -5.1518    3.6856 C.ar      1 <0>        -0.0193
     26 C18       -13.0336   -4.3188    3.6265 C.ar      1 <0>        -0.1256
     27 C19       -12.8715   -2.9501    3.6593 C.ar      1 <0>        -0.0608
     28 Cl1       -12.1404   -6.8742    3.6432 Cl        1 <0>        -0.0787
     29 C20        -9.5550    0.2101    1.4508 C.ar      1 <0>        -0.0688
     30 C21        -9.6225    1.5885    1.3709 C.ar      1 <0>        -0.0919
     31 C22       -10.0998    2.1916    0.2222 C.ar      1 <0>        -0.1202
     32 C23       -10.5172    1.4162   -0.8433 C.ar      1 <0>        -0.1254
     33 C24       -10.4546    0.0377   -0.7614 C.ar      1 <0>        -0.1214
     34 C25        -9.9737   -0.5653    0.3857 C.ar      1 <0>        -0.1014
     35 H2          0.1144    1.1149   -2.0838 H         1 <0>         0.1012
     36 H3         -1.6020    1.2136   -2.6044 H         1 <0>         0.0571
     37 H4         -0.9664   -0.3066   -1.8889 H         1 <0>         0.0571
     38 H5         -3.0582   -0.1162   -1.9062 H         1 <0>         0.1343
     39 H6         -5.2842   -0.7104   -1.1683 H         1 <0>         0.1336
     40 H7         -2.3073    1.9170    1.7733 H         1 <0>         0.1379
     41 H8         -9.4842   -2.8321    3.8738 H         1 <0>         0.1424
     42 H9         -9.7959   -5.2704    3.8241 H         1 <0>         0.1345
     43 H10       -14.0244   -4.7425    3.5549 H         1 <0>         0.1337
     44 H11       -13.7339   -2.3018    3.6127 H         1 <0>         0.1402
     45 H12        -9.2996    2.1942    2.2046 H         1 <0>         0.1103
     46 H13       -10.1491    3.2686    0.1584 H         1 <0>         0.1159
     47 H14       -10.8926    1.8874   -1.7397 H         1 <0>         0.1151
     48 H15       -10.7810   -0.5681   -1.5938 H         1 <0>         0.1171
     49 H16        -9.9247   -1.6423    0.4497 H         1 <0>         0.1186
@<TRIPOS>BOND
     1    1    2 1
     2    1   35 1
     3    1   36 1
     4    1   37 1
     5    2    3 1
     6    3    8 ar
     7    3    4 ar
     8    4    5 ar
     9    4   38 1
    10    5    6 ar
    11    5   39 1
    12    6   11 1
    13    6    7 ar
    14    7    8 ar
    15    7    9 1
    16    8   40 1
    17    9   10 1
    18   10   11 2
    19   10   12 1
    20   12   17 am
    21   12   13 1
    22   13   14 1
    23   13   15 1
    24   13   29 1
    25   15   16 2
    26   15   20 1
    27   16   17 1
    28   16   19 1
    29   17   18 2
    30   20   21 2
    31   20   22 1
    32   22   27 ar
    33   22   23 ar
    34   23   24 ar
    35   23   41 1
    36   24   25 ar
    37   24   42 1
    38   25   26 ar
    39   25   28 1
    40   26   27 ar
    41   26   43 1
    42   27   44 1
    43   29   34 ar
    44   29   30 ar
    45   30   31 ar
    46   30   45 1
    47   31   32 ar
    48   31   46 1
    49   32   33 ar
    50   32   47 1
    51   33   34 ar
    52   33   48 1
    53   34   49 1
@<TRIPOS>MOLECULE
ZINC33675051
   52    55     0     0     0
SMALL
USER_CHARGES
(4E,5R)-1-benzyl-5-(4-bromophenyl)-4-[(2,5-dimethylphenyl)-hydroxy-methylene]pyrrolidine-2,3-dione
@<TRIPOS>ATOM
      1 C1          2.0009    4.8263    7.3045 C.3       1 <0>        -0.1082
      2 C2          2.8825    4.9227    6.0861 C.ar      1 <0>        -0.1038
      3 C3          4.0650    5.6403    6.1445 C.ar      1 <0>        -0.1231
      4 C4          4.8811    5.7349    5.0308 C.ar      1 <0>        -0.1237
      5 C5          4.5246    5.1085    3.8551 C.ar      1 <0>        -0.0464
      6 C6          3.3292    4.3863    3.7866 C.ar      1 <0>        -0.0551
      7 C7          2.5096    4.2957    4.9164 C.ar      1 <0>        -0.0910
      8 C8          2.9380    3.7191    2.5324 C.2       1 <0>         0.4018
      9 C9          2.6228    4.4717    1.4200 C.2       1 <0>        -0.4976
     10 C10         2.3342    3.9582    0.0283 C.3       1 <0>         0.2641
     11 H1          3.1864    3.4031   -0.3908 H         1 <0>         0.0726
     12 N1          2.0543    5.1325   -0.8029 N.am      1 <0>        -0.5968
     13 C11         2.1514    6.2379   -0.0454 C.2       1 <0>         0.4775
     14 O1          1.9756    7.3714   -0.4430 O.2       1 <0>        -0.5300
     15 C12         2.5055    5.8697    1.3524 C.2       1 <0>         0.3724
     16 O2          2.6650    6.6456    2.2771 O.3       1 <0>        -0.4901
     17 C13         1.7226    5.1053   -2.2296 C.3       1 <0>         0.1675
     18 C14         0.2288    4.9955   -2.3961 C.ar      1 <0>        -0.1072
     19 C15        -0.3681    3.7512   -2.4757 C.ar      1 <0>        -0.0836
     20 C16        -1.7389    3.6504   -2.6231 C.ar      1 <0>        -0.1197
     21 C17        -2.5114    4.7940   -2.7023 C.ar      1 <0>        -0.1179
     22 C18        -1.9139    6.0383   -2.6279 C.ar      1 <0>        -0.1285
     23 C19        -0.5438    6.1391   -2.4748 C.ar      1 <0>        -0.0976
     24 C20         1.1349    3.0460    0.0533 C.ar      1 <0>        -0.0458
     25 C21         1.3078    1.6756   -0.0041 C.ar      1 <0>        -0.0777
     26 C22         0.2082    0.8386    0.0192 C.ar      1 <0>        -0.0985
     27 C23        -1.0657    1.3724    0.0938 C.ar      1 <0>        -0.0950
     28 C24        -1.2380    2.7435    0.1570 C.ar      1 <0>        -0.0919
     29 C25        -0.1377    3.5798    0.1341 C.ar      1 <0>        -0.0809
     30 Br1        -2.5709    0.2280    0.1179 Br        1 <0>        -0.0765
     31 O3          2.8879    2.3714    2.4720 O.2       1 <0>        -0.6290
     32 C26         5.4183    5.2067    2.6456 C.3       1 <0>        -0.1187
     33 H2          2.4591    5.3852    8.1338 H         1 <0>         0.0592
     34 H3          1.8873    3.7707    7.5923 H         1 <0>         0.0634
     35 H4          1.0128    5.2526    7.0767 H         1 <0>         0.0639
     36 H5          4.3519    6.1290    7.0639 H         1 <0>         0.1122
     37 H6          5.8021    6.2965    5.0841 H         1 <0>         0.1145
     38 H7          1.5869    3.7362    4.8724 H         1 <0>         0.1148
     39 H8          2.0776    6.0309   -2.7063 H         1 <0>         0.0886
     40 H9          2.2089    4.2394   -2.7027 H         1 <0>         0.0858
     41 H10         0.2360    2.8578   -2.4186 H         1 <0>         0.1176
     42 H11        -2.2057    2.6783   -2.6808 H         1 <0>         0.1170
     43 H12        -3.5819    4.7153   -2.8219 H         1 <0>         0.1155
     44 H13        -2.5175    6.9318   -2.6898 H         1 <0>         0.1165
     45 H14        -0.0769    7.1112   -2.4171 H         1 <0>         0.1222
     46 H15         2.3022    1.2590   -0.0669 H         1 <0>         0.1280
     47 H16         0.3433   -0.2320   -0.0253 H         1 <0>         0.1230
     48 H17        -2.2322    3.1606    0.2202 H         1 <0>         0.1195
     49 H18        -0.2723    4.6504    0.1790 H         1 <0>         0.1162
     50 H19         4.9695    4.6470    1.8117 H         1 <0>         0.0770
     51 H20         6.4049    4.7822    2.8833 H         1 <0>         0.0579
     52 H21         5.5327    6.2625    2.3590 H         1 <0>         0.0655
@<TRIPOS>BOND
     1    1    2 1
     2    1   33 1
     3    1   34 1
     4    1   35 1
     5    2    7 ar
     6    2    3 ar
     7    3    4 ar
     8    3   36 1
     9    4    5 ar
    10    4   37 1
    11    5    6 ar
    12    5   32 1
    13    6    7 ar
    14    6    8 1
    15    7   38 1
    16    8    9 1
    17    8   31 2
    18    9   15 2
    19    9   10 1
    20   10   11 1
    21   10   12 1
    22   10   24 1
    23   12   13 am
    24   12   17 1
    25   13   14 2
    26   13   15 1
    27   15   16 1
    28   17   18 1
    29   17   39 1
    30   17   40 1
    31   18   23 ar
    32   18   19 ar
    33   19   20 ar
    34   19   41 1
    35   20   21 ar
    36   20   42 1
    37   21   22 ar
    38   21   43 1
    39   22   23 ar
    40   22   44 1
    41   23   45 1
    42   24   29 ar
    43   24   25 ar
    44   25   26 ar
    45   25   46 1
    46   26   27 ar
    47   26   47 1
    48   27   28 ar
    49   27   30 1
    50   28   29 ar
    51   28   48 1
    52   29   49 1
    53   32   50 1
    54   32   51 1
    55   32   52 1
@<TRIPOS>MOLECULE
ZINC38626013
   48    50     0     0     0
SMALL
USER_CHARGES

@<TRIPOS>ATOM
      1 C1         -0.5834    1.4287    0.5390 C.3       1 <0>        -0.1280
      2 C2         -0.2961   -0.0453    0.4131 C.2       1 <0>         0.1393
      3 C3         -0.1568   -0.6341   -0.8382 C.2       1 <0>        -0.3100
      4 C4          0.1219   -2.0691   -0.9163 C.2       1 <0>         0.5657
      5 O1          0.2485   -2.6078   -2.0015 O.2       1 <0>        -0.5425
      6 N1          0.2386   -2.7924    0.2131 N.am      1 <0>        -0.5194
      7 C5          0.1026   -2.2171    1.4308 C.2       1 <0>         0.5272
      8 C6         -0.1584   -0.8484    1.5609 C.2       1 <0>        -0.4115
      9 C7         -0.2936   -0.2532    2.8902 C.2       1 <0>         0.4842
     10 O2         -1.2203   -0.5717    3.6063 O.2       1 <0>        -0.4566
     11 C8          0.7177    0.7555    3.3705 C.3       1 <0>        -0.1794
     12 H1          1.4813    1.0375    2.6456 H         1 <0>         0.1232
     13 C9          1.1287    0.6976    4.8431 C.3       1 <0>        -0.1035
     14 H2          0.6676   -0.0701    5.4645 H         1 <0>         0.1282
     15 C10         0.2335    1.8337    4.3421 C.3       1 <0>        -0.0802
     16 C11         0.8586    3.2250    4.2221 C.3       1 <0>        -0.1195
     17 C12        -1.2404    1.8053    4.7516 C.3       1 <0>        -0.1165
     18 C13         2.5583    1.0348    5.1804 C.2       1 <0>        -0.0687
     19 C14         3.0094    0.8391    6.3981 C.2       1 <0>        -0.0482
     20 Cl1         1.9589    0.1919    7.6194 Cl        1 <0>        -0.0372
     21 Cl2         4.6562    1.2275    6.7866 Cl        1 <0>        -0.0468
     22 O3          0.2263   -2.9742    2.5367 O.3       1 <0>        -0.6409
     23 C15         0.5171   -4.2278    0.1226 C.3       1 <0>         0.1423
     24 C16        -0.7736   -4.9979    0.2321 C.ar      1 <0>        -0.0955
     25 C17        -1.2529   -5.3708    1.4740 C.ar      1 <0>        -0.0710
     26 C18        -2.4367   -6.0771    1.5746 C.ar      1 <0>        -0.1291
     27 C19        -3.1423   -6.4110    0.4334 C.ar      1 <0>        -0.1078
     28 C20        -2.6642   -6.0388   -0.8086 C.ar      1 <0>        -0.1280
     29 C21        -1.4820   -5.3267   -0.9096 C.ar      1 <0>        -0.0243
     30 Cl3        -0.8842   -4.8530   -2.4691 Cl        1 <0>        -0.0379
     31 C22        -0.2843    0.1493   -2.0301 C.1       1 <0>         0.3160
     32 N2         -0.3854    0.7707   -2.9757 N.1       1 <0>        -0.4978
     33 H3          0.3528    1.9715    0.6698 H         1 <0>         0.0819
     34 H4         -1.0838    1.7797   -0.3635 H         1 <0>         0.0675
     35 H5         -1.2269    1.6011    1.4017 H         1 <0>         0.0711
     36 H6          0.6648    3.6258    3.2271 H         1 <0>         0.0655
     37 H7          0.4218    3.8854    4.9712 H         1 <0>         0.0640
     38 H8          1.9345    3.1550    4.3824 H         1 <0>         0.0592
     39 H9         -1.4636    0.8565    5.2396 H         1 <0>         0.0770
     40 H10        -1.4417    2.6249    5.4413 H         1 <0>         0.0552
     41 H11        -1.8658    1.9141    3.8655 H         1 <0>         0.0611
     42 H12         3.2118    1.4374    4.4206 H         1 <0>         0.1465
     43 H13         0.9905   -4.4464   -0.8346 H         1 <0>         0.1037
     44 H14         1.1846   -4.5202    0.9332 H         1 <0>         0.0980
     45 H15        -0.7020   -5.1105    2.3657 H         1 <0>         0.1470
     46 H16        -2.8106   -6.3685    2.5450 H         1 <0>         0.1244
     47 H17        -4.0671   -6.9632    0.5127 H         1 <0>         0.1250
     48 H18        -3.2153   -6.3000   -1.6999 H         1 <0>         0.1272
@<TRIPOS>BOND
     1    1    2 1
     2    1   33 1
     3    1   34 1
     4    1   35 1
     5    2    8 1
     6    2    3 2
     7    3    4 1
     8    3   31 1
     9    4    5 2
    10    4    6 am
    11    6    7 1
    12    6   23 1
    13    7    8 2
    14    7   22 1
    15    8    9 1
    16    9   10 2
    17    9   11 1
    18   11   12 1
    19   11   15 1
    20   11   13 1
    21   13   14 1
    22   13   15 1
    23   13   18 1
    24   15   16 1
    25   15   17 1
    26   16   36 1
    27   16   37 1
    28   16   38 1
    29   17   39 1
    30   17   40 1
    31   17   41 1
    32   18   19 2
    33   18   42 1
    34   19   20 1
    35   19   21 1
    36   23   24 1
    37   23   43 1
    38   23   44 1
    39   24   29 ar
    40   24   25 ar
    41   25   26 ar
    42   25   45 1
    43   26   27 ar
    44   26   46 1
    45   27   28 ar
    46   27   47 1
    47   28   29 ar
    48   28   48 1
    49   29   30 1
    50   31   32 3
@<TRIPOS>MOLECULE
ZINC23702026
   43    46     0     0     0
SMALL
USER_CHARGES

@<TRIPOS>ATOM
      1 C1         -0.0170    1.4037    0.0098 C.ar      1 <0>        -0.1454
      2 C2          1.1638    2.1000    0.0022 C.ar      1 <0>        -0.0263
      3 C3          2.3745    1.4226   -0.0134 C.ar      1 <0>        -0.0461
      4 C4          2.4051    0.0355   -0.0212 C.ar      1 <0>        -0.0302
      5 C5          1.2365   -0.6810   -0.0134 C.ar      1 <0>        -0.1357
      6 C6          0.0021   -0.0041    0.0020 C.ar      1 <0>         0.1162
      7 C7         -1.2500   -0.7570    0.0104 C.2       1 <0>        -0.2829
      8 C8         -1.4438   -2.2134    0.0105 C.2       1 <0>        -0.0724
      9 C9         -2.6866   -2.6774    0.0191 C.2       1 <0>        -0.1879
     10 C10        -3.7881   -1.6968    0.0279 C.2       1 <0>        -0.0819
     11 S1         -2.9230   -0.1355    0.0310 S.3       1 <0>         0.2124
     12 C11        -5.1592   -1.9304    0.0376 C.2       1 <0>        -0.0415
     13 C12        -6.0513   -0.8546    0.0450 C.2       1 <0>        -0.1977
     14 C13        -7.5496   -0.8704    0.0619 C.2       1 <0>         0.5166
     15 O1         -8.1852   -1.9068    0.0720 O.2       1 <0>        -0.5413
     16 N1         -8.1343    0.3100    0.0656 N.2       1 <0>        -0.6986
     17 C14        -7.3962    1.4079    0.0547 C.2       1 <0>         0.3868
     18 N2         -7.8168    2.7016    0.0563 N.2       1 <0>        -0.5630
     19 C15        -9.2497    3.0060    0.0712 C.3       1 <0>         0.1041
     20 C16        -9.8900    2.4714    1.3689 C.3       1 <0>        -0.1237
     21 C17        -9.8962    3.6934    2.3207 C.3       1 <0>        -0.1212
     22 C18       -10.2285    4.8678    1.3671 C.3       1 <0>        -0.1208
     23 C19        -9.4649    4.5296    0.0700 C.3       1 <0>        -0.1057
     24 S2         -5.7224    0.7963    0.0448 S.3       1 <0>        -0.0018
     25 N3          3.6438    2.1859   -0.0224 N.pl3     1 <0>        -0.0051
     26 O2          3.6204    3.5026   -0.0156 O.2       1 <0>        -0.1910
     27 O3          4.7958    1.5478   -0.0373 O.3       1 <0>        -0.1939
     28 H1         -0.9583    1.9330    0.0261 H         1 <0>         0.1461
     29 H2          1.1516    3.1799    0.0081 H         1 <0>         0.1538
     30 H3          3.3532   -0.4816   -0.0337 H         1 <0>         0.1525
     31 H4          1.2626   -1.7607   -0.0198 H         1 <0>         0.1473
     32 H5         -0.5993   -2.8866    0.0034 H         1 <0>         0.1349
     33 H6         -2.8854   -3.7390    0.0192 H         1 <0>         0.1412
     34 H7         -5.5344   -2.9431    0.0394 H         1 <0>         0.1589
     35 H8         -9.7350    2.5597   -0.7968 H         1 <0>         0.0505
     36 H9        -10.9078    2.1302    1.1796 H         1 <0>         0.0563
     37 H10        -9.2879    1.6650    1.7873 H         1 <0>         0.0719
     38 H11       -10.6673    3.5850    3.0834 H         1 <0>         0.0557
     39 H12        -8.9163    3.8321    2.7775 H         1 <0>         0.0631
     40 H13       -11.3010    4.9135    1.1775 H         1 <0>         0.0585
     41 H14        -9.8734    5.8101    1.7842 H         1 <0>         0.0587
     42 H15        -8.5032    5.0425    0.0584 H         1 <0>         0.0728
     43 H16       -10.0554    4.8226   -0.7981 H         1 <0>         0.0557
@<TRIPOS>BOND
     1    1    6 ar
     2    1    2 ar
     3    1   28 1
     4    2    3 ar
     5    2   29 1
     6    3    4 ar
     7    3   25 1
     8    4    5 ar
     9    4   30 1
    10    5    6 ar
    11    5   31 1
    12    6    7 1
    13    7   11 1
    14    7    8 2
    15    8    9 1
    16    8   32 1
    17    9   10 2
    18    9   33 1
    19   10   11 1
    20   10   12 1
    21   12   13 2
    22   12   34 1
    23   13   24 1
    24   13   14 1
    25   14   15 2
    26   14   16 1
    27   16   17 2
    28   17   18 1
    29   17   24 1
    30   18   19 1
    31   19   23 1
    32   19   20 1
    33   19   35 1
    34   20   21 1
    35   20   36 1
    36   20   37 1
    37   21   22 1
    38   21   38 1
    39   21   39 1
    40   22   23 1
    41   22   40 1
    42   22   41 1
    43   23   42 1
    44   23   43 1
    45   25   26 2
    46   25   27 1
@<TRIPOS>MOLECULE
ZINC35557507
   44    47     0     0     0
SMALL
USER_CHARGES

@<TRIPOS>ATOM
      1 C1         -0.0184    1.5028    0.0103 C.3       1 <0>        -0.1160
      2 C2          0.0021   -0.0041    0.0020 C.ar      1 <0>        -0.0198
      3 C3          0.0057   -0.6874   -1.1983 C.ar      1 <0>        -0.1760
      4 C4          0.0245   -2.0761   -1.2052 C.ar      1 <0>         0.2961
      5 C5          0.0397   -2.7738   -0.0040 C.ar      1 <0>        -0.2643
      6 C6          0.0360   -2.0852    1.1929 C.ar      1 <0>        -0.0305
      7 C7          0.0229   -0.7014    1.1966 C.ar      1 <0>        -0.1874
      8 Br1         0.0256    0.2379    2.8377 Br        1 <0>        -0.0968
      9 N1          0.0278   -2.7701   -2.4178 N.2       1 <0>        -1.0819
     10 S1          0.0503   -4.4260   -2.4241 S.o2      1 <0>         2.6328
     11 O1          1.3038   -4.8172   -1.8812 O.2       1 <0>        -1.0145
     12 O2         -1.1866   -4.8510   -1.8685 O.2       1 <0>        -1.0168
     13 C8          0.0487   -4.9406   -4.1093 C.2       1 <0>        -0.7059
     14 C9          1.1012   -5.1792   -4.9241 C.2       1 <0>        -0.0057
     15 C10         0.7979   -5.5796   -6.2257 C.2       1 <0>        -0.1162
     16 C11        -0.5135   -5.6986   -6.5737 C.2       1 <0>        -0.1822
     17 S2         -1.3400   -5.2864   -5.1707 S.3       1 <0>         0.3245
     18 C12         1.8739   -5.8674   -7.2037 C.2       1 <0>         0.3202
     19 N2          1.6924   -6.2532   -8.4799 N.2       1 <0>        -0.5378
     20 C13         2.8446   -6.4210   -9.0633 C.2       1 <0>         0.2942
     21 O3          3.8127   -6.1479   -8.1791 O.3       1 <0>        -0.1035
     22 N3          3.1617   -5.7830   -6.9713 N.2       1 <0>        -0.3345
     23 C14         3.0534   -6.8507  -10.4926 C.3       1 <0>        -0.0094
     24 C15         3.9131   -8.1308  -10.5394 C.3       1 <0>        -0.1211
     25 C16         4.8086   -7.9415  -11.7890 C.3       1 <0>        -0.1220
     26 C17         5.1405   -6.4292  -11.7457 C.3       1 <0>        -0.1253
     27 C18         3.8338   -5.7688  -11.2596 C.3       1 <0>        -0.1197
     28 H1          1.0042    1.8801    0.0026 H         1 <0>         0.0672
     29 H2         -0.5455    1.8639   -0.8728 H         1 <0>         0.0634
     30 H3         -0.5286    1.8543    0.9071 H         1 <0>         0.0685
     31 H4         -0.0064   -0.1424   -2.1307 H         1 <0>         0.1212
     32 H5          0.0540   -3.8537   -0.0062 H         1 <0>         0.1045
     33 H6          0.0474   -2.6271    2.1271 H         1 <0>         0.1132
     34 H7          2.1206   -5.0658   -4.5860 H         1 <0>         0.1563
     35 H8         -0.9256   -5.9935   -7.5274 H         1 <0>         0.2013
     36 H9          2.0913   -7.0284  -10.9731 H         1 <0>         0.1210
     37 H10         4.5245   -8.2127   -9.6408 H         1 <0>         0.0769
     38 H11         3.2806   -9.0111  -10.6531 H         1 <0>         0.0800
     39 H12         5.7167   -8.5388  -11.7075 H         1 <0>         0.0742
     40 H13         4.2611   -8.1910  -12.6979 H         1 <0>         0.0732
     41 H14         5.9502   -6.2364  -11.0419 H         1 <0>         0.0716
     42 H15         5.4037   -6.0678  -12.7398 H         1 <0>         0.0729
     43 H16         3.2508   -5.4221  -12.1128 H         1 <0>         0.0824
     44 H17         4.0615   -4.9330  -10.5980 H         1 <0>         0.0720
@<TRIPOS>BOND
     1    1    2 1
     2    1   28 1
     3    1   29 1
     4    1   30 1
     5    2    7 ar
     6    2    3 ar
     7    3    4 ar
     8    3   31 1
     9    4    5 ar
    10    4    9 1
    11    5    6 ar
    12    5   32 1
    13    6    7 ar
    14    6   33 1
    15    7    8 1
    16    9   10 1
    17   10   11 2
    18   10   12 2
    19   10   13 1
    20   13   17 1
    21   13   14 2
    22   14   15 1
    23   14   34 1
    24   15   16 2
    25   15   18 1
    26   16   17 1
    27   16   35 1
    28   18   22 2
    29   18   19 1
    30   19   20 2
    31   20   21 1
    32   20   23 1
    33   21   22 1
    34   23   27 1
    35   23   24 1
    36   23   36 1
    37   24   25 1
    38   24   37 1
    39   24   38 1
    40   25   26 1
    41   25   39 1
    42   25   40 1
    43   26   27 1
    44   26   41 1
    45   26   42 1
    46   27   43 1
    47   27   44 1
@<TRIPOS>MOLECULE
ZINC02791867
   50    53     0     0     0
SMALL
USER_CHARGES
3-[3-[(3-bromophenoxy)methyl]phenyl]-4-(2,4-dimethoxyphenyl)-1H-1,2,4-triazole-5-thione
@<TRIPOS>ATOM
      1 C1          4.9084    7.8219   -0.5787 C.3       1 <0>         0.0230
      2 O1          4.6296    6.9222   -1.6534 O.3       1 <0>        -0.3152
      3 C2          4.4024    5.6222   -1.3269 C.ar      1 <0>         0.1702
      4 C3          4.4479    5.2230    0.0012 C.ar      1 <0>        -0.2367
      5 C4          4.2124    3.9037    0.3368 C.ar      1 <0>        -0.0260
      6 C5          3.9411    2.9728   -0.6550 C.ar      1 <0>         0.0877
      7 C6          3.8950    3.3717   -1.9888 C.ar      1 <0>         0.1901
      8 C7          4.1260    4.6963   -2.3216 C.ar      1 <0>        -0.2384
      9 O2          3.6233    2.4624   -2.9624 O.3       1 <0>        -0.2926
     10 C8          3.5922    2.9425   -4.3079 C.3       1 <0>         0.0227
     11 N1          3.7075    1.6309   -0.3144 N.pl3     1 <0>        -0.4497
     12 C9          2.4789    1.0735   -0.0154 C.2       1 <0>         0.2048
     13 N2          2.6524   -0.1899    0.2560 N.2       1 <0>        -0.3042
     14 N3          4.0179   -0.4780    0.1267 N.2       1 <0>        -0.3788
     15 C10         4.6430    0.6649   -0.2228 C.2       1 <0>         0.4040
     16 S1          6.3217    0.8543   -0.5008 S.3       1 <0>        -0.7648
     17 C11         1.1849    1.7911    0.0004 C.ar      1 <0>         0.0114
     18 C12         1.1576    3.1861    0.0082 C.ar      1 <0>        -0.1069
     19 C13        -0.0520    3.8493    0.0233 C.ar      1 <0>        -0.1188
     20 C14        -1.2364    3.1340    0.0303 C.ar      1 <0>        -0.0963
     21 C15        -1.2161    1.7510    0.0173 C.ar      1 <0>        -0.1011
     22 C16        -0.0126    1.0758    0.0080 C.ar      1 <0>        -0.0602
     23 C17        -2.5108    0.9798    0.0187 C.3       1 <0>         0.1020
     24 O3         -2.9140    0.7283    1.3664 O.3       1 <0>        -0.2997
     25 C18        -4.0707    0.0378    1.5457 C.ar      1 <0>         0.1436
     26 C19        -4.5216   -0.2416    2.8279 C.ar      1 <0>        -0.1371
     27 C20        -5.6977   -0.9430    3.0081 C.ar      1 <0>        -0.0740
     28 C21        -6.4265   -1.3667    1.9121 C.ar      1 <0>        -0.1341
     29 C22        -5.9796   -1.0896    0.6325 C.ar      1 <0>        -0.0499
     30 C23        -4.8054   -0.3836    0.4474 C.ar      1 <0>        -0.1856
     31 Br1        -6.9789   -1.6705   -0.8640 Br        1 <0>        -0.0501
     32 H1          5.0714    8.8331   -0.9799 H         1 <0>         0.0998
     33 H2          5.8115    7.4886   -0.0465 H         1 <0>         0.0593
     34 H3          4.0569    7.8365    0.1175 H         1 <0>         0.0576
     35 H4          4.6635    5.9457    0.7742 H         1 <0>         0.1355
     36 H5          4.2439    3.5962    1.3716 H         1 <0>         0.1350
     37 H6          4.0904    5.0079   -3.3550 H         1 <0>         0.1409
     38 H7          3.3631    2.1098   -4.9891 H         1 <0>         0.1009
     39 H8          4.5721    3.3697   -4.5675 H         1 <0>         0.0596
     40 H9          2.8175    3.7176   -4.4028 H         1 <0>         0.0557
     41 H10         2.0814    3.7455    0.0027 H         1 <0>         0.1330
     42 H11        -0.0745    4.9291    0.0294 H         1 <0>         0.1260
     43 H12        -2.1808    3.6578    0.0415 H         1 <0>         0.1227
     44 H13         0.0021   -0.0041    0.0020 H         1 <0>         0.1354
     45 H14        -3.2877    1.5668   -0.4930 H         1 <0>         0.0741
     46 H15        -2.3686    0.0235   -0.5060 H         1 <0>         0.0763
     47 H16        -3.9533    0.0896    3.6846 H         1 <0>         0.1386
     48 H17        -6.0487   -1.1605    4.0061 H         1 <0>         0.1385
     49 H18        -7.3463   -1.9144    2.0551 H         1 <0>         0.1328
     50 H19        -4.4586   -0.1637   -0.5515 H         1 <0>         0.1388
@<TRIPOS>BOND
     1    1    2 1
     2    1   32 1
     3    1   33 1
     4    1   34 1
     5    2    3 1
     6    3    8 ar
     7    3    4 ar
     8    4    5 ar
     9    4   35 1
    10    5    6 ar
    11    5   36 1
    12    6    7 ar
    13    6   11 1
    14    7    8 ar
    15    7    9 1
    16    8   37 1
    17    9   10 1
    18   10   38 1
    19   10   39 1
    20   10   40 1
    21   11   15 1
    22   11   12 1
    23   12   13 2
    24   12   17 1
    25   13   14 1
    26   14   15 2
    27   15   16 1
    28   17   22 ar
    29   17   18 ar
    30   18   19 ar
    31   18   41 1
    32   19   20 ar
    33   19   42 1
    34   20   21 ar
    35   20   43 1
    36   21   22 ar
    37   21   23 1
    38   22   44 1
    39   23   24 1
    40   23   45 1
    41   23   46 1
    42   24   25 1
    43   25   30 ar
    44   25   26 ar
    45   26   27 ar
    46   26   47 1
    47   27   28 ar
    48   27   48 1
    49   28   29 ar
    50   28   49 1
    51   29   30 ar
    52   29   31 1
    53   30   50 1
@<TRIPOS>MOLECULE
ZINC35969500
   59    62     0     0     0
SMALL
USER_CHARGES

@<TRIPOS>ATOM
      1 C1         -0.5900    1.6019   -0.8217 C.3       1 <0>        -0.1503
      2 C2         -0.6004    0.0749   -0.9184 C.3       1 <0>         0.0668
      3 O1          0.2295   -0.3392   -2.0055 O.3       1 <0>        -0.3535
      4 C3          0.4109   -1.6686   -2.1670 C.2       1 <0>         0.5388
      5 O2         -0.1952   -2.4565   -1.4618 O.2       1 <0>        -0.5500
      6 C4          1.2952   -2.1408   -3.1445 C.2       1 <0>        -0.3901
      7 C5          1.4446   -3.4945   -3.3778 C.2       1 <0>         0.3023
      8 N1          2.2840   -3.9263   -4.3048 N.2       1 <0>        -0.5973
      9 C6          3.0282   -3.1499   -5.0652 C.2       1 <0>         0.3236
     10 N2          3.0282   -1.7849   -4.9928 N.pl3     1 <0>        -0.5105
     11 C7          2.1139   -1.1859   -3.9843 C.3       1 <0>         0.2608
     12 H1          1.4245   -0.5210   -4.5046 H         1 <0>         0.0737
     13 C8          2.9466   -0.3447   -3.0515 C.ar      1 <0>        -0.0737
     14 C9          2.5843    0.9640   -2.7916 C.ar      1 <0>        -0.0742
     15 C10         3.3480    1.7355   -1.9361 C.ar      1 <0>        -0.1332
     16 C11         4.4740    1.1984   -1.3400 C.ar      1 <0>        -0.1184
     17 C12         4.8356   -0.1101   -1.5992 C.ar      1 <0>        -0.1268
     18 C13         4.0692   -0.8832   -2.4516 C.ar      1 <0>        -0.0558
     19 C14         4.4606   -2.3116   -2.7301 C.3       1 <0>        -0.1293
     20 C15         3.8654   -1.1111   -5.8596 C.2       1 <0>         0.2368
     21 C16         4.6156   -1.8492   -6.7072 C.2       1 <0>        -0.3059
     22 S1          4.1342   -3.5094   -6.2755 S.3       1 <0>         0.1428
     23 C17         3.9378    0.3570   -5.8605 C.2       1 <0>        -0.4700
     24 C18         4.6379    0.9961   -6.8174 C.2       1 <0>         0.5022
     25 O3          5.1502    0.3000   -7.8614 O.3       1 <0>        -0.7031
     26 N3          4.8342    2.3643   -6.7345 N.pl3     1 <0>        -0.7564
     27 C19         5.5956    3.0594   -7.7753 C.3       1 <0>         0.1483
     28 C20         5.6640    4.5521   -7.4462 C.3       1 <0>        -0.0509
     29 C21         6.4472    5.2671   -8.5168 C.2       1 <0>        -0.1180
     30 C22         6.0021    5.8373   -9.6632 C.2       1 <0>        -0.1673
     31 C23         6.9126    6.4461  -10.5065 C.2       1 <0>        -0.1510
     32 C24         8.2235    6.4550  -10.1622 C.2       1 <0>        -0.1858
     33 S2          8.2011    5.5900   -8.6006 S.3       1 <0>         0.0310
     34 C25         0.6465   -4.4856   -2.5706 C.3       1 <0>        -0.1176
     35 H2          0.4296    1.9483   -0.6529 H         1 <0>         0.0652
     36 H3         -0.9692    2.0273   -1.7508 H         1 <0>         0.0629
     37 H4         -1.2230    1.9177    0.0075 H         1 <0>         0.0707
     38 H5         -0.2212   -0.3505    0.0108 H         1 <0>         0.0580
     39 H6         -1.6200   -0.2715   -1.0871 H         1 <0>         0.0577
     40 H7          1.7048    1.3835   -3.2572 H         1 <0>         0.1182
     41 H8          3.0655    2.7580   -1.7336 H         1 <0>         0.1144
     42 H9          5.0711    1.8015   -0.6721 H         1 <0>         0.1132
     43 H10         5.7153   -0.5296   -1.1338 H         1 <0>         0.1130
     44 H11         5.1192   -2.3453   -3.5979 H         1 <0>         0.0658
     45 H12         4.9797   -2.7216   -1.8638 H         1 <0>         0.0572
     46 H13         3.5658   -2.9011   -2.9300 H         1 <0>         0.0761
     47 H14         5.3231   -1.5184   -7.4532 H         1 <0>         0.2305
     48 H15         3.4297    0.9233   -5.0940 H         1 <0>         0.0923
     49 H16         4.4675    2.8625   -5.9873 H         1 <0>         0.3852
     50 H17         6.6051    2.6509   -7.8210 H         1 <0>         0.0542
     51 H18         5.1040    2.9218   -8.7383 H         1 <0>         0.0544
     52 H19         4.6545    4.9606   -7.4005 H         1 <0>         0.0886
     53 H20         6.1556    4.6897   -6.4832 H         1 <0>         0.0816
     54 H21         4.9519    5.8159   -9.9141 H         1 <0>         0.1326
     55 H22         6.5843    6.9075  -11.4262 H         1 <0>         0.1306
     56 H23         9.0632    6.8789  -10.6929 H         1 <0>         0.1824
     57 H24        -0.3370   -4.6143   -3.0228 H         1 <0>         0.0792
     58 H25         1.1667   -5.4433   -2.5538 H         1 <0>         0.0647
     59 H26         0.5323   -4.1162   -1.5515 H         1 <0>         0.1130
@<TRIPOS>BOND
     1    1    2 1
     2    1   35 1
     3    1   36 1
     4    1   37 1
     5    2    3 1
     6    2   38 1
     7    2   39 1
     8    3    4 1
     9    4    5 2
    10    4    6 1
    11    6   11 1
    12    6    7 2
    13    7    8 1
    14    7   34 1
    15    8    9 2
    16    9   22 1
    17    9   10 1
    18   10   11 1
    19   10   20 1
    20   11   12 1
    21   11   13 1
    22   13   18 ar
    23   13   14 ar
    24   14   15 ar
    25   14   40 1
    26   15   16 ar
    27   15   41 1
    28   16   17 ar
    29   16   42 1
    30   17   18 ar
    31   17   43 1
    32   18   19 1
    33   19   44 1
    34   19   45 1
    35   19   46 1
    36   20   21 2
    37   20   23 1
    38   21   22 1
    39   21   47 1
    40   23   24 2
    41   23   48 1
    42   24   25 1
    43   24   26 1
    44   26   27 1
    45   26   49 1
    46   27   28 1
    47   27   50 1
    48   27   51 1
    49   28   29 1
    50   28   52 1
    51   28   53 1
    52   29   33 1
    53   29   30 2
    54   30   31 1
    55   30   54 1
    56   31   32 2
    57   31   55 1
    58   32   33 1
    59   32   56 1
    60   34   57 1
    61   34   58 1
    62   34   59 1
@<TRIPOS>MOLECULE
ZINC39870916
   52    54     0     0     0
SMALL
USER_CHARGES

@<TRIPOS>ATOM
      1 C1         -0.0187    1.5258    0.0104 C.3       1 <0>        -0.1526
      2 C2          0.0021   -0.0041    0.0020 C.3       1 <0>        -0.1247
      3 C3         -1.4333   -0.5336    0.0129 C.3       1 <0>        -0.1194
      4 C4         -1.4126   -2.0635    0.0045 C.3       1 <0>        -0.1131
      5 C5         -2.8479   -2.5931    0.0153 C.3       1 <0>        -0.1284
      6 C6         -2.8272   -4.1229    0.0069 C.3       1 <0>         0.1065
      7 N1         -4.2016   -4.6300    0.0173 N.am      1 <0>        -0.5298
      8 C7         -4.8169   -4.8616    1.2030 C.2       1 <0>         0.4911
      9 C8         -6.1289   -5.3457    1.2427 C.2       1 <0>        -0.1600
     10 C9         -6.8120   -5.5931    0.0403 C.2       1 <0>         0.1631
     11 C10        -6.1613   -5.3484   -1.1653 C.2       1 <0>        -0.2814
     12 C11        -4.8326   -4.8524   -1.1498 C.2       1 <0>         0.5738
     13 O1         -4.2570   -4.6307   -2.2008 O.2       1 <0>        -0.5591
     14 C12        -6.8287   -5.5897   -2.4091 C.1       1 <0>         0.3128
     15 N2         -7.3580   -5.7812   -3.3958 N.1       1 <0>        -0.4784
     16 C13        -8.2256   -6.1152    0.0558 C.3       1 <0>        -0.1252
     17 N3         -6.7391   -5.5760    2.4380 N.2       1 <0>        -0.1612
     18 N4         -6.1073   -5.3476    3.5392 N.2       1 <0>        -0.2756
     19 C14        -6.7199   -5.5787    4.7390 C.ar      1 <0>         0.1071
     20 C15        -8.0383   -6.0714    4.7672 C.ar      1 <0>        -0.1285
     21 C16        -8.6672   -6.3082    5.9458 C.ar      1 <0>        -0.1100
     22 C17        -8.0021   -6.0615    7.1614 C.ar      1 <0>        -0.0646
     23 C18        -8.6334   -6.2993    8.3934 C.ar      1 <0>        -0.1025
     24 C19        -7.9649   -6.0516    9.5534 C.ar      1 <0>        -0.1316
     25 C20        -6.6594   -5.5641    9.5399 C.ar      1 <0>        -0.1241
     26 C21        -6.0152   -5.3212    8.3660 C.ar      1 <0>        -0.1043
     27 C22        -6.6736   -5.5655    7.1471 C.ar      1 <0>        -0.0386
     28 C23        -6.0363   -5.3316    5.9197 C.ar      1 <0>        -0.0925
     29 O2         -4.1584   -4.6236    2.3542 O.3       1 <0>        -0.5779
     30 H1          1.0039    1.9031    0.0027 H         1 <0>         0.0504
     31 H2         -0.5459    1.8868   -0.8726 H         1 <0>         0.0523
     32 H3         -0.5289    1.8773    0.9072 H         1 <0>         0.0528
     33 H4          0.5123   -0.3556   -0.8948 H         1 <0>         0.0597
     34 H5          0.5293   -0.3651    0.8851 H         1 <0>         0.0603
     35 H6         -1.9435   -0.1821    0.9097 H         1 <0>         0.0611
     36 H7         -1.9605   -0.1726   -0.8702 H         1 <0>         0.0602
     37 H8         -0.9024   -2.4150   -0.8923 H         1 <0>         0.0616
     38 H9         -0.8854   -2.4246    0.8875 H         1 <0>         0.0632
     39 H10        -3.3581   -2.2415    0.9121 H         1 <0>         0.0675
     40 H11        -3.3751   -2.2320   -0.8677 H         1 <0>         0.0633
     41 H12        -2.3170   -4.4744   -0.8899 H         1 <0>         0.0847
     42 H13        -2.3000   -4.4840    0.8900 H         1 <0>         0.0904
     43 H14        -8.9224   -5.2770    0.0634 H         1 <0>         0.0846
     44 H15        -8.3981   -6.7230   -0.8324 H         1 <0>         0.0677
     45 H16        -8.3786   -6.7231    0.9475 H         1 <0>         0.0855
     46 H17        -8.5558   -6.2630    3.8388 H         1 <0>         0.1306
     47 H18        -9.6790   -6.6858    5.9513 H         1 <0>         0.1206
     48 H19        -9.6450   -6.6767    8.4205 H         1 <0>         0.1208
     49 H20        -8.4540   -6.2355   10.4986 H         1 <0>         0.1159
     50 H21        -6.1518   -5.3761   10.4744 H         1 <0>         0.1173
     51 H22        -5.0037   -4.9427    8.3702 H         1 <0>         0.1248
     52 H23        -5.0232   -4.9582    5.8945 H         1 <0>         0.1338
@<TRIPOS>BOND
     1    1    2 1
     2    1   30 1
     3    1   31 1
     4    1   32 1
     5    2    3 1
     6    2   33 1
     7    2   34 1
     8    3    4 1
     9    3   35 1
    10    3   36 1
    11    4    5 1
    12    4   37 1
    13    4   38 1
    14    5    6 1
    15    5   39 1
    16    5   40 1
    17    6    7 1
    18    6   41 1
    19    6   42 1
    20    7   12 am
    21    7    8 1
    22    8    9 2
    23    8   29 1
    24    9   10 1
    25    9   17 1
    26   10   11 2
    27   10   16 1
    28   11   12 1
    29   11   14 1
    30   12   13 2
    31   14   15 3
    32   16   43 1
    33   16   44 1
    34   16   45 1
    35   17   18 2
    36   18   19 1
    37   19   28 ar
    38   19   20 ar
    39   20   21 ar
    40   20   46 1
    41   21   22 ar
    42   21   47 1
    43   22   27 ar
    44   22   23 ar
    45   23   24 ar
    46   23   48 1
    47   24   25 ar
    48   24   49 1
    49   25   26 ar
    50   25   50 1
    51   26   27 ar
    52   26   51 1
    53   27   28 ar
    54   28   52 1
@<TRIPOS>MOLECULE
ZINC41120709
   53    57     0     0     0
SMALL
USER_CHARGES

@<TRIPOS>ATOM
      1 C1          0.3973    1.2587    1.1998 C.ar      1 <0>        -0.1382
      2 C2          1.6430    1.8626    1.2881 C.ar      1 <0>        -0.1016
      3 C3          2.7906    1.1459    1.0275 C.ar      1 <0>        -0.1255
      4 C4          2.7056   -0.1966    0.6717 C.ar      1 <0>         0.0865
      5 C5          1.4444   -0.8053    0.5829 C.ar      1 <0>        -0.0726
      6 C6          0.2929   -0.0700    0.8489 C.ar      1 <0>        -0.0691
      7 C7          1.6962   -2.2066    0.1914 C.2       1 <0>        -0.1711
      8 C8          3.0671   -2.3339    0.0758 C.2       1 <0>         0.0927
      9 N1          3.6555   -1.1487    0.3595 N.pl3     1 <0>        -0.4644
     10 C9          5.1005   -0.9088    0.3377 C.3       1 <0>         0.1099
     11 C10         5.6668   -1.0776    1.7490 C.3       1 <0>         0.0420
     12 O1          7.0764   -0.8437    1.7278 O.3       1 <0>        -0.2995
     13 C11         7.7382   -0.9545    2.9099 C.ar      1 <0>         0.1410
     14 C12         7.0461   -1.2872    4.0650 C.ar      1 <0>        -0.1962
     15 C13         7.7209   -1.3998    5.2652 C.ar      1 <0>        -0.0731
     16 C14         9.0853   -1.1807    5.3164 C.ar      1 <0>        -0.1451
     17 C15         9.7781   -0.8484    4.1671 C.ar      1 <0>        -0.0736
     18 C16         9.1087   -0.7405    2.9622 C.ar      1 <0>        -0.0689
     19 Cl1         9.9800   -0.3304    1.5177 Cl        1 <0>        -0.0557
     20 C17         0.7293   -3.2151   -0.0216 C.2       1 <0>         0.0651
     21 C18         1.0680   -4.3628   -0.7181 C.2       1 <0>        -0.0735
     22 C19         2.3479   -4.4641   -1.3523 C.1       1 <0>         0.2902
     23 N2          3.3632   -4.5444   -1.8554 N.1       1 <0>        -0.4528
     24 C20         0.1160   -5.4746   -0.8063 C.2       1 <0>         0.4741
     25 O2         -1.0920   -5.3790   -0.2077 O.3       1 <0>        -0.6259
     26 N3          0.4385   -6.5675   -1.4695 N.2       1 <0>        -0.6168
     27 C21        -0.4376   -7.5907   -1.5508 C.2       1 <0>         0.4488
     28 N4         -1.6534   -7.6825   -1.0440 N.2       1 <0>        -0.5767
     29 C22        -2.4225   -8.7779   -1.2078 C.ar      1 <0>         0.1503
     30 C23        -3.7319   -9.0051   -0.7214 C.ar      1 <0>        -0.1128
     31 C24        -4.3794  -10.1849   -0.9791 C.ar      1 <0>        -0.1031
     32 C25        -3.7808  -11.1938   -1.7201 C.ar      1 <0>        -0.1620
     33 C26        -2.5014  -11.0060   -2.2113 C.ar      1 <0>        -0.0484
     34 C27        -1.8447   -9.8278   -1.9592 C.ar      1 <0>        -0.1894
     35 S1         -0.2509   -9.1638   -2.3783 S.3       1 <0>        -0.1008
     36 H1         -0.4940    1.8308    1.4111 H         1 <0>         0.1255
     37 H2          1.7139    2.9044    1.5636 H         1 <0>         0.1250
     38 H3          3.7554    1.6260    1.0989 H         1 <0>         0.1180
     39 H4         -0.6779   -0.5383    0.7803 H         1 <0>         0.1309
     40 H5          3.5885   -3.2392   -0.1981 H         1 <0>         0.1824
     41 H6          5.5774   -1.6235   -0.3330 H         1 <0>         0.1084
     42 H7          5.2954    0.1046   -0.0131 H         1 <0>         0.1037
     43 H8          5.1900   -0.3629    2.4197 H         1 <0>         0.0740
     44 H9          5.4720   -2.0911    2.0999 H         1 <0>         0.0745
     45 H10         5.9804   -1.4579    4.0262 H         1 <0>         0.1372
     46 H11         7.1822   -1.6588    6.1647 H         1 <0>         0.1333
     47 H12         9.6106   -1.2689    6.2559 H         1 <0>         0.1345
     48 H13        10.8436   -0.6771    4.2098 H         1 <0>         0.1402
     49 H14        -0.2737   -3.0906    0.3590 H         1 <0>         0.1574
     50 H15        -4.2261   -8.2404   -0.1406 H         1 <0>         0.1192
     51 H16        -5.3783  -10.3331   -0.5963 H         1 <0>         0.1161
     52 H17        -4.3084  -12.1166   -1.9112 H         1 <0>         0.1202
     53 H18        -2.0221  -11.7822   -2.7895 H         1 <0>         0.1158
@<TRIPOS>BOND
     1    1    6 ar
     2    1    2 ar
     3    1   36 1
     4    2    3 ar
     5    2   37 1
     6    3    4 ar
     7    3   38 1
     8    4    9 1
     9    4    5 ar
    10    5    6 ar
    11    5    7 1
    12    6   39 1
    13    7    8 2
    14    7   20 1
    15    8    9 1
    16    8   40 1
    17    9   10 1
    18   10   11 1
    19   10   41 1
    20   10   42 1
    21   11   12 1
    22   11   43 1
    23   11   44 1
    24   12   13 1
    25   13   18 ar
    26   13   14 ar
    27   14   15 ar
    28   14   45 1
    29   15   16 ar
    30   15   46 1
    31   16   17 ar
    32   16   47 1
    33   17   18 ar
    34   17   48 1
    35   18   19 1
    36   20   21 2
    37   20   49 1
    38   21   22 1
    39   21   24 1
    40   22   23 3
    41   24   25 1
    42   24   26 2
    43   26   27 1
    44   27   35 1
    45   27   28 2
    46   28   29 1
    47   29   34 ar
    48   29   30 ar
    49   30   31 ar
    50   30   50 1
    51   31   32 ar
    52   31   51 1
    53   32   33 ar
    54   32   52 1
    55   33   34 ar
    56   33   53 1
    57   34   35 1
@<TRIPOS>MOLECULE
ZINC58976247
   57    59     0     0     0
SMALL
USER_CHARGES

@<TRIPOS>ATOM
      1 C1         -0.9630   -1.6094   -1.5469 C.3       1 <0>        -0.1529
      2 C2         -0.8139   -3.0955   -1.2148 C.3       1 <0>         0.0552
      3 O1         -0.0646   -3.2407   -0.0067 O.3       1 <0>        -0.3160
      4 C3          0.1597   -4.5081    0.4321 C.ar      1 <0>         0.0960
      5 C4         -0.3271   -5.5882   -0.2895 C.ar      1 <0>        -0.1712
      6 C5         -0.0997   -6.8755    0.1563 C.ar      1 <0>        -0.1681
      7 C6          0.6159   -7.0883    1.3255 C.ar      1 <0>         0.1016
      8 C7          1.1029   -6.0085    2.0466 C.ar      1 <0>        -0.0703
      9 C8          0.8799   -4.7211    1.5979 C.ar      1 <0>        -0.1072
     10 C9          1.8803   -6.2397    3.3168 C.3       1 <0>        -0.0829
     11 C10         3.3511   -6.4881    2.9764 C.3       1 <0>         0.1389
     12 N1          4.1068   -6.7129    4.2112 N.pl3     1 <0>        -0.7442
     13 C11         5.4718   -6.9613    4.1543 C.2       1 <0>         0.1599
     14 C12         6.1631   -7.1669    5.2839 C.2       1 <0>        -0.0876
     15 N2          7.4994   -7.4101    5.2282 N.2       1 <0>        -0.4501
     16 C13         8.1756   -7.6112    6.3331 C.2       1 <0>         0.4902
     17 N3          9.4830   -7.8753    6.7519 N.2       1 <0>        -0.6199
     18 C14         9.6647   -8.0048    8.0950 C.2       1 <0>         0.5578
     19 S1          7.9155   -7.6841    8.0905 S.3       1 <0>        -0.6013
     20 N4         10.6731   -8.2503    8.9874 N.2       1 <0>        -0.5425
     21 C15        10.3742   -8.4829   10.3334 C.ar      1 <0>         0.1947
     22 C16         9.1024   -8.9020   10.7015 C.ar      1 <0>        -0.1818
     23 C17         8.8102   -9.1309   12.0329 C.ar      1 <0>         0.0048
     24 C18         9.7837   -8.9429   12.9988 C.ar      1 <0>        -0.1613
     25 C19        11.0506   -8.5254   12.6357 C.ar      1 <0>        -0.0752
     26 C20        11.3511   -8.3006   11.3054 C.ar      1 <0>        -0.0584
     27 Cl1        12.9445   -7.7837   10.8498 Cl        1 <0>        -0.0645
     28 Cl2         7.2206   -9.6543   12.4942 Cl        1 <0>        -0.0821
     29 C21         6.1758   -6.9997    2.8224 C.3       1 <0>        -0.1046
     30 O2          0.8394   -8.3557    1.7647 O.3       1 <0>        -0.3090
     31 C22         0.3085   -9.4199    0.9725 C.3       1 <0>         0.0557
     32 C23         0.6582  -10.7612    1.6201 C.3       1 <0>        -0.1535
     33 H1          0.0240   -1.1652   -1.6759 H         1 <0>         0.0670
     34 H2         -1.5345   -1.4986   -2.4684 H         1 <0>         0.0773
     35 H3         -1.4846   -1.1058   -0.7331 H         1 <0>         0.0663
     36 H4         -1.8009   -3.5397   -1.0858 H         1 <0>         0.0597
     37 H5         -0.2923   -3.5991   -2.0286 H         1 <0>         0.0603
     38 H6         -0.8842   -5.4226   -1.1998 H         1 <0>         0.1287
     39 H7         -0.4793   -7.7164   -0.4051 H         1 <0>         0.1302
     40 H8          1.2627   -3.8803    2.1573 H         1 <0>         0.1388
     41 H9          1.7989   -5.3617    3.9575 H         1 <0>         0.0793
     42 H10         1.4761   -7.1080    3.8372 H         1 <0>         0.0854
     43 H11         3.4325   -7.3662    2.3357 H         1 <0>         0.0603
     44 H12         3.7553   -5.6199    2.4560 H         1 <0>         0.0565
     45 H13         3.6537   -6.6882    5.0685 H         1 <0>         0.3953
     46 H14         5.6586   -7.1394    6.2384 H         1 <0>         0.0874
     47 H15         8.3424   -9.0485    9.9483 H         1 <0>         0.1460
     48 H16         9.5529   -9.1225   14.0385 H         1 <0>         0.1311
     49 H17        11.8078   -8.3793   13.3918 H         1 <0>         0.1356
     50 H18         6.5319   -6.0007    2.5708 H         1 <0>         0.0687
     51 H19         7.0225   -7.6838    2.8786 H         1 <0>         0.0886
     52 H20         5.4822   -7.3423    2.0546 H         1 <0>         0.0558
     53 H21        -0.7749   -9.3191    0.9078 H         1 <0>         0.0588
     54 H22         0.7378   -9.3768   -0.0285 H         1 <0>         0.0602
     55 H23         1.7416  -10.8620    1.6848 H         1 <0>         0.0686
     56 H24         0.2289  -10.8043    2.6211 H         1 <0>         0.0665
     57 H25         0.2532  -11.5730    1.0159 H         1 <0>         0.0771
@<TRIPOS>BOND
     1    1    2 1
     2    1   33 1
     3    1   34 1
     4    1   35 1
     5    2    3 1
     6    2   36 1
     7    2   37 1
     8    3    4 1
     9    4    9 ar
    10    4    5 ar
    11    5    6 ar
    12    5   38 1
    13    6    7 ar
    14    6   39 1
    15    7    8 ar
    16    7   30 1
    17    8    9 ar
    18    8   10 1
    19    9   40 1
    20   10   11 1
    21   10   41 1
    22   10   42 1
    23   11   12 1
    24   11   43 1
    25   11   44 1
    26   12   13 1
    27   12   45 1
    28   13   14 2
    29   13   29 1
    30   14   15 1
    31   14   46 1
    32   15   16 2
    33   16   19 1
    34   16   17 1
    35   17   18 2
    36   18   19 1
    37   18   20 1
    38   20   21 1
    39   21   26 ar
    40   21   22 ar
    41   22   23 ar
    42   22   47 1
    43   23   24 ar
    44   23   28 1
    45   24   25 ar
    46   24   48 1
    47   25   26 ar
    48   25   49 1
    49   26   27 1
    50   29   50 1
    51   29   51 1
    52   29   52 1
    53   30   31 1
    54   31   32 1
    55   31   53 1
    56   31   54 1
    57   32   55 1
    58   32   56 1
    59   32   57 1
@<TRIPOS>MOLECULE
ZINC13396232
   51    55     0     0     0
SMALL
USER_CHARGES
4-fluoro-3-[[5-(2-methoxyphenyl)-4-phenyl-1,2,4-triazol-3-yl]sulfanylmethyl]benzothiophene-2-carboxylic acid
@<TRIPOS>ATOM
      1 C1          9.9974   -1.9200   -0.5196 C.3       1 <0>         0.0256
      2 O1          9.2772   -0.7473   -0.9046 O.3       1 <0>        -0.2931
      3 C2          9.8418    0.0377   -1.8586 C.ar      1 <0>         0.1693
      4 C3         11.0596   -0.3139   -2.4173 C.ar      1 <0>        -0.2121
      5 C4         11.6360    0.4886   -3.3840 C.ar      1 <0>        -0.0655
      6 C5         10.9997    1.6436   -3.8048 C.ar      1 <0>        -0.1580
      7 C6          9.7840    2.0047   -3.2620 C.ar      1 <0>        -0.0526
      8 C7          9.1924    1.2027   -2.2851 C.ar      1 <0>        -0.0454
      9 C8          7.8908    1.5842   -1.6994 C.2       1 <0>         0.2237
     10 N1          7.5839    1.6009   -0.4228 N.2       1 <0>        -0.2489
     11 N2          6.3681    1.9868   -0.2674 N.2       1 <0>        -0.2870
     12 C9          5.8185    2.2330   -1.4352 C.2       1 <0>         0.1876
     13 N3          6.7689    1.9888   -2.3895 N.pl3     1 <0>        -0.4233
     14 C10         6.6302    2.1228   -3.7780 C.ar      1 <0>         0.1166
     15 C11         6.6773    1.0001   -4.5933 C.ar      1 <0>        -0.0937
     16 C12         6.5355    1.1349   -5.9606 C.ar      1 <0>        -0.1057
     17 C13         6.3577    2.3875   -6.5185 C.ar      1 <0>        -0.1056
     18 C14         6.3151    3.5081   -5.7095 C.ar      1 <0>        -0.1063
     19 C15         6.4511    3.3791   -4.3410 C.ar      1 <0>        -0.1012
     20 S1          4.1686    2.7822   -1.7193 S.3       1 <0>         0.0227
     21 C16         3.5672    2.8656   -0.0142 C.3       1 <0>        -0.0499
     22 C17         2.1325    3.3269   -0.0095 C.2       1 <0>        -0.1144
     23 C18         1.8348    4.6987    0.0624 C.ar      1 <0>        -0.0971
     24 C19         2.7400    5.7920    0.1359 C.ar      1 <0>         0.1362
     25 C20         2.2749    7.0788    0.2080 C.ar      1 <0>        -0.1636
     26 C21         0.9141    7.3586    0.2110 C.ar      1 <0>        -0.0835
     27 C22         0.0058    6.3222    0.1405 C.ar      1 <0>        -0.0818
     28 C23         0.4572    5.0215    0.0678 C.ar      1 <0>        -0.1194
     29 S2         -0.3384    3.4376   -0.0335 S.3       1 <0>         0.1012
     30 C24         1.1241    2.4163   -0.0792 C.2       1 <0>        -0.0827
     31 C25         1.2164    0.9540   -0.1646 C.2       1 <0>         0.5208
     32 O2          2.3054    0.4138   -0.1852 O.co2     1 <0>        -0.5850
     33 F1          4.0710    5.5602    0.1350 F         1 <0>        -0.1296
     34 H1          9.4373   -2.4550    0.2473 H         1 <0>         0.1029
     35 H2         10.1319   -2.5652   -1.3879 H         1 <0>         0.0546
     36 H3         10.9724   -1.6344   -0.1247 H         1 <0>         0.0568
     37 H4         11.5614   -1.2140   -2.0942 H         1 <0>         0.1343
     38 H5         12.5878    0.2128   -3.8134 H         1 <0>         0.1282
     39 H6         11.4569    2.2647   -4.5608 H         1 <0>         0.1288
     40 H7          9.2905    2.9066   -3.5929 H         1 <0>         0.1270
     41 H8          6.8206    0.0220   -4.1584 H         1 <0>         0.1281
     42 H9          6.5676    0.2614   -6.5949 H         1 <0>         0.1330
     43 H10         6.2515    2.4908   -7.5883 H         1 <0>         0.1303
     44 H11         6.1758    4.4851   -6.1480 H         1 <0>         0.1337
     45 H12         6.4178    4.2547   -3.7096 H         1 <0>         0.1312
     46 H13         4.1770    3.5695    0.5522 H         1 <0>         0.1010
     47 H14         3.6328    1.8783    0.4430 H         1 <0>         0.1348
     48 H15         2.9818    7.8935    0.2634 H         1 <0>         0.1346
     49 H16         0.5694    8.3806    0.2678 H         1 <0>         0.1385
     50 H17        -1.0542    6.5290    0.1425 H         1 <0>         0.1345
     51 O3          0.0933    0.2096   -0.2201 O.co2     1 <0>        -0.7305
@<TRIPOS>BOND
     1    1    2 1
     2    1   34 1
     3    1   35 1
     4    1   36 1
     5    2    3 1
     6    3    8 ar
     7    3    4 ar
     8    4    5 ar
     9    4   37 1
    10    5    6 ar
    11    5   38 1
    12    6    7 ar
    13    6   39 1
    14    7    8 ar
    15    7   40 1
    16    8    9 1
    17    9   13 1
    18    9   10 2
    19   10   11 1
    20   11   12 2
    21   12   13 1
    22   12   20 1
    23   13   14 1
    24   14   19 ar
    25   14   15 ar
    26   15   16 ar
    27   15   41 1
    28   16   17 ar
    29   16   42 1
    30   17   18 ar
    31   17   43 1
    32   18   19 ar
    33   18   44 1
    34   19   45 1
    35   20   21 1
    36   21   22 1
    37   21   46 1
    38   21   47 1
    39   22   30 2
    40   22   23 1
    41   23   28 ar
    42   23   24 ar
    43   24   25 ar
    44   24   33 1
    45   25   26 ar
    46   25   48 1
    47   26   27 ar
    48   26   49 1
    49   27   28 ar
    50   27   50 1
    51   28   29 1
    52   29   30 1
    53   30   31 1
    54   31   32 2
    55   31   51 1
@<TRIPOS>MOLECULE
ZINC34930674
   59    64     0     0     0
SMALL
USER_CHARGES

@<TRIPOS>ATOM
      1 C1         -0.5866    1.8369   -0.0591 C.3       1 <0>        -0.1073
      2 C2         -0.4878    0.3340   -0.1082 C.ar      1 <0>        -0.0864
      3 C3         -0.5198   -0.3312   -1.3256 C.ar      1 <0>        -0.1063
      4 C4         -0.4322   -1.6966   -1.3982 C.ar      1 <0>        -0.0713
      5 C5         -0.3051   -2.4760   -0.2247 C.ar      1 <0>         0.1140
      6 C6         -0.2755   -1.7646    0.9967 C.ar      1 <0>        -0.1719
      7 C7         -0.3586   -0.3959    1.0591 C.ar      1 <0>        -0.0568
      8 S1         -0.1110   -3.0700    2.1906 S.3       1 <0>         0.0455
      9 C8         -0.0924   -4.4317    1.0333 C.2       1 <0>         0.4106
     10 N1         -0.2076   -3.8187   -0.1221 N.2       1 <0>        -0.5458
     11 N2          0.0154   -5.7871    1.2896 N.am      1 <0>        -0.5052
     12 C9          0.0299   -6.8574    0.2855 C.3       1 <0>         0.2677
     13 H1          0.8792   -6.7300   -0.3858 H         1 <0>         0.0884
     14 C10         0.1634   -8.1524    1.0524 C.2       1 <0>        -0.4859
     15 C11         0.2231   -9.5023    0.4849 C.2       1 <0>         0.5062
     16 C12         1.3721   -9.9006   -0.3562 C.ar      1 <0>        -0.1392
     17 C13         2.4584   -9.0373   -0.5140 C.ar      1 <0>        -0.0660
     18 C14         3.5272   -9.4154   -1.2996 C.ar      1 <0>        -0.1368
     19 C15         3.5247  -10.6471   -1.9307 C.ar      1 <0>        -0.1038
     20 C16         2.4514  -11.5074   -1.7786 C.ar      1 <0>        -0.1359
     21 C17         1.3785  -11.1442   -0.9916 C.ar      1 <0>        -0.0722
     22 O1         -0.6729  -10.2952    0.7059 O.2       1 <0>        -0.4646
     23 C18         0.2179   -7.8248    2.3653 C.2       1 <0>         0.2724
     24 O2          0.3385   -8.7023    3.3878 O.3       1 <0>        -0.6321
     25 C19         0.1313   -6.3565    2.5030 C.2       1 <0>         0.5126
     26 O3          0.1585   -5.7524    3.5568 O.2       1 <0>        -0.4831
     27 C20        -1.2570   -6.8498   -0.4986 C.ar      1 <0>        -0.0509
     28 C21        -2.4661   -6.7172    0.1595 C.ar      1 <0>        -0.0896
     29 C22        -3.6485   -6.7094   -0.5569 C.ar      1 <0>        -0.1031
     30 C23        -3.6250   -6.8346   -1.9326 C.ar      1 <0>        -0.1238
     31 C24        -2.4134   -6.9678   -2.5951 C.ar      1 <0>         0.0808
     32 C25        -1.2276   -6.9696   -1.8742 C.ar      1 <0>        -0.1149
     33 O4         -2.3876   -7.0912   -3.9481 O.3       1 <0>        -0.2569
     34 C26        -1.9845   -8.2781   -4.4729 C.ar      1 <0>         0.1233
     35 C27        -1.7431   -9.3605   -3.6390 C.ar      1 <0>        -0.1872
     36 C28        -1.3333  -10.5659   -4.1750 C.ar      1 <0>        -0.0766
     37 C29        -1.1633  -10.6943   -5.5412 C.ar      1 <0>        -0.1561
     38 C30        -1.4028   -9.6171   -6.3743 C.ar      1 <0>        -0.0876
     39 C31        -1.8191   -8.4114   -5.8441 C.ar      1 <0>        -0.1507
     40 H2          0.4125    2.2688   -0.1170 H         1 <0>         0.0707
     41 H3         -1.1841    2.1894   -0.8999 H         1 <0>         0.0677
     42 H4         -1.0597    2.1396    0.8751 H         1 <0>         0.0664
     43 H5         -0.6162    0.2405   -2.2368 H         1 <0>         0.1285
     44 H6         -0.4610   -2.1832   -2.3619 H         1 <0>         0.1299
     45 H7         -0.3276    0.1074    2.0141 H         1 <0>         0.1284
     46 H8          2.4615   -8.0757   -0.0224 H         1 <0>         0.1305
     47 H9          4.3678   -8.7486   -1.4229 H         1 <0>         0.1218
     48 H10         4.3639  -10.9380   -2.5450 H         1 <0>         0.1188
     49 H11         2.4559  -12.4672   -2.2738 H         1 <0>         0.1210
     50 H12         0.5434  -11.8182   -0.8704 H         1 <0>         0.1280
     51 H13        -2.4867   -6.6199    1.2349 H         1 <0>         0.1187
     52 H14        -4.5915   -6.6057   -0.0406 H         1 <0>         0.1283
     53 H15        -4.5490   -6.8292   -2.4916 H         1 <0>         0.1275
     54 H16        -0.2828   -7.0690   -2.3879 H         1 <0>         0.1269
     55 H17        -1.8750   -9.2606   -2.5717 H         1 <0>         0.1318
     56 H18        -1.1453  -11.4087   -3.5263 H         1 <0>         0.1250
     57 H19        -0.8426  -11.6375   -5.9582 H         1 <0>         0.1216
     58 H20        -1.2689   -9.7199   -7.4411 H         1 <0>         0.1266
     59 H21        -2.0106   -7.5717   -6.4957 H         1 <0>         0.1285
@<TRIPOS>BOND
     1    1    2 1
     2    1   40 1
     3    1   41 1
     4    1   42 1
     5    2    7 ar
     6    2    3 ar
     7    3    4 ar
     8    3   43 1
     9    4    5 ar
    10    4   44 1
    11    5   10 1
    12    5    6 ar
    13    6    7 ar
    14    6    8 1
    15    7   45 1
    16    8    9 1
    17    9   10 2
    18    9   11 1
    19   11   25 am
    20   11   12 1
    21   12   14 1
    22   12   27 1
    23   12   13 1
    24   14   23 2
    25   14   15 1
    26   15   22 2
    27   15   16 1
    28   16   21 ar
    29   16   17 ar
    30   17   18 ar
    31   17   46 1
    32   18   19 ar
    33   18   47 1
    34   19   20 ar
    35   19   48 1
    36   20   21 ar
    37   20   49 1
    38   21   50 1
    39   23   25 1
    40   23   24 1
    41   25   26 2
    42   27   32 ar
    43   27   28 ar
    44   28   29 ar
    45   28   51 1
    46   29   30 ar
    47   29   52 1
    48   30   31 ar
    49   30   53 1
    50   31   32 ar
    51   31   33 1
    52   32   54 1
    53   33   34 1
    54   34   39 ar
    55   34   35 ar
    56   35   36 ar
    57   35   55 1
    58   36   37 ar
    59   36   56 1
    60   37   38 ar
    61   37   57 1
    62   38   39 ar
    63   38   58 1
    64   39   59 1
@<TRIPOS>MOLECULE
ZINC39866818
   67    71     0     0     0
SMALL
USER_CHARGES

@<TRIPOS>ATOM
      1 C1         -1.1004    0.6801   -2.5514 C.3       1 <0>        -0.1181
      2 C2         -0.7672   -0.6206   -1.8671 C.ar      1 <0>        -0.0753
      3 C3         -1.3434   -1.7987   -2.3040 C.ar      1 <0>        -0.1244
      4 C4         -1.0378   -2.9919   -1.6764 C.ar      1 <0>        -0.0896
      5 C5         -0.1557   -3.0069   -0.6122 C.ar      1 <0>        -0.1037
      6 C6          0.4212   -1.8289   -0.1759 C.ar      1 <0>        -0.0901
      7 C7          0.1189   -0.6364   -0.8063 C.ar      1 <0>        -0.1249
      8 C8          0.1767   -4.3075    0.0727 C.3       1 <0>         0.1023
      9 O1          1.3077   -4.9056   -0.5639 O.3       1 <0>        -0.3072
     10 C9          1.7404   -6.0931   -0.0643 C.ar      1 <0>         0.1283
     11 C10         1.0841   -6.6728    1.0142 C.ar      1 <0>        -0.1933
     12 C11         1.5185   -7.8810    1.5282 C.ar      1 <0>        -0.0727
     13 C12         2.6071   -8.5207    0.9735 C.ar      1 <0>        -0.1349
     14 C13         3.2753   -7.9461   -0.1134 C.ar      1 <0>        -0.0401
     15 C14         2.8307   -6.7264   -0.6340 C.ar      1 <0>        -0.1204
     16 C15         4.4366   -8.6235   -0.7082 C.2       1 <0>         0.0414
     17 C16         4.6022   -9.9589   -0.5399 C.2       1 <0>        -0.2029
     18 C17         5.7541  -10.8128   -0.8957 C.2       1 <0>         0.5482
     19 O2          6.7505  -10.3514   -1.4201 O.2       1 <0>        -0.4845
     20 N1          5.6525  -12.1015   -0.6175 N.am      1 <0>        -0.5645
     21 C18         4.5157  -12.6045   -0.0229 C.2       1 <0>         0.3574
     22 N2          4.2536  -13.8460    0.3183 N.2       1 <0>        -0.4408
     23 C19         5.2576  -14.7759    0.3414 C.ar      1 <0>         0.0656
     24 C20         6.2709  -14.6893    1.3005 C.ar      1 <0>        -0.1429
     25 C21         7.2848  -15.6259    1.3251 C.ar      1 <0>        -0.1177
     26 C22         7.3063  -16.6545    0.4042 C.ar      1 <0>        -0.0887
     27 C23         6.2997  -16.7544   -0.5605 C.ar      1 <0>        -0.1130
     28 C24         5.2691  -15.8149   -0.5878 C.ar      1 <0>        -0.0857
     29 C25         6.3243  -17.8544   -1.5440 C.2       1 <0>         0.5206
     30 O3          7.2260  -18.6799   -1.5157 O.co2     1 <0>        -0.6822
     31 O4          5.4428  -17.9404   -2.3873 O.co2     1 <0>        -0.6823
     32 S1          3.4891  -11.1579    0.1789 S.3       1 <0>         0.0737
     33 C26         6.7593  -13.0036   -0.9451 C.3       1 <0>         0.0975
     34 C27         7.9764  -12.6499   -0.0880 C.3       1 <0>        -0.1228
     35 C28         9.1323  -13.5920   -0.4302 C.3       1 <0>        -0.1197
     36 C29         9.4904  -13.4434   -1.9102 C.3       1 <0>        -0.1162
     37 C30         8.2733  -13.7971   -2.7674 C.3       1 <0>        -0.1164
     38 C31         7.1174  -12.8550   -2.4252 C.3       1 <0>        -0.1329
     39 H1         -0.4008    0.8497   -3.3699 H         1 <0>         0.0729
     40 H2         -2.1158    0.6340   -2.9449 H         1 <0>         0.0677
     41 H3         -1.0255    1.4975   -1.8342 H         1 <0>         0.0674
     42 H4         -2.0326   -1.7870   -3.1354 H         1 <0>         0.1251
     43 H5         -1.4885   -3.9122   -2.0172 H         1 <0>         0.1252
     44 H6          1.1101   -1.8406    0.6558 H         1 <0>         0.1247
     45 H7          0.5725    0.2835   -0.4678 H         1 <0>         0.1248
     46 H8          0.4080   -4.1175    1.1208 H         1 <0>         0.0722
     47 H9         -0.6769   -4.9820    0.0055 H         1 <0>         0.0727
     48 H10         0.2309   -6.1774    1.4535 H         1 <0>         0.1312
     49 H11         1.0035   -8.3251    2.3673 H         1 <0>         0.1334
     50 H12         2.9437   -9.4640    1.3777 H         1 <0>         0.1377
     51 H13         3.3390   -6.2786   -1.4751 H         1 <0>         0.1393
     52 H14         5.1578   -8.0576   -1.2792 H         1 <0>         0.1609
     53 H15         6.2608  -13.8873    2.0238 H         1 <0>         0.1141
     54 H16         8.0651  -15.5537    2.0682 H         1 <0>         0.1212
     55 H17         8.1030  -17.3832    0.4291 H         1 <0>         0.1311
     56 H18         4.4862  -15.8896   -1.3280 H         1 <0>         0.1323
     57 H19         6.4608  -14.0327   -0.7451 H         1 <0>         0.1362
     58 H20         8.2749  -11.6208   -0.2880 H         1 <0>         0.0738
     59 H21         7.7213  -12.7558    0.9664 H         1 <0>         0.0627
     60 H22         9.9993  -13.3400    0.1805 H         1 <0>         0.0638
     61 H23         8.8337  -14.6211   -0.2301 H         1 <0>         0.0757
     62 H24         9.7889  -12.4143   -2.1103 H         1 <0>         0.0597
     63 H25        10.3139  -14.1145   -2.1540 H         1 <0>         0.0639
     64 H26         8.5284  -13.6912   -3.8218 H         1 <0>         0.0660
     65 H27         7.9748  -14.8261   -2.5673 H         1 <0>         0.0698
     66 H28         6.2504  -13.1070   -3.0358 H         1 <0>         0.0590
     67 H29         7.4159  -11.8259   -2.6252 H         1 <0>         0.0884
@<TRIPOS>BOND
     1    1    2 1
     2    1   39 1
     3    1   40 1
     4    1   41 1
     5    2    7 ar
     6    2    3 ar
     7    3    4 ar
     8    3   42 1
     9    4    5 ar
    10    4   43 1
    11    5    6 ar
    12    5    8 1
    13    6    7 ar
    14    6   44 1
    15    7   45 1
    16    8    9 1
    17    8   46 1
    18    8   47 1
    19    9   10 1
    20   10   15 ar
    21   10   11 ar
    22   11   12 ar
    23   11   48 1
    24   12   13 ar
    25   12   49 1
    26   13   14 ar
    27   13   50 1
    28   14   15 ar
    29   14   16 1
    30   15   51 1
    31   16   17 2
    32   16   52 1
    33   17   32 1
    34   17   18 1
    35   18   19 2
    36   18   20 am
    37   20   21 1
    38   20   33 1
    39   21   22 2
    40   21   32 1
    41   22   23 1
    42   23   28 ar
    43   23   24 ar
    44   24   25 ar
    45   24   53 1
    46   25   26 ar
    47   25   54 1
    48   26   27 ar
    49   26   55 1
    50   27   28 ar
    51   27   29 1
    52   28   56 1
    53   29   30 2
    54   29   31 1
    55   33   38 1
    56   33   34 1
    57   33   57 1
    58   34   35 1
    59   34   58 1
    60   34   59 1
    61   35   36 1
    62   35   60 1
    63   35   61 1
    64   36   37 1
    65   36   62 1
    66   36   63 1
    67   37   38 1
    68   37   64 1
    69   37   65 1
    70   38   66 1
    71   38   67 1
@<TRIPOS>MOLECULE
ZINC40102420
   67    70     0     0     0
SMALL
USER_CHARGES

@<TRIPOS>ATOM
      1 C1         -0.1735    1.6469    0.1128 C.3       1 <0>        -0.1503
      2 C2         -0.1195    0.1224   -0.0049 C.3       1 <0>        -0.1205
      3 C3         -1.5394   -0.4443    0.0537 C.3       1 <0>        -0.1376
      4 C4         -1.4854   -1.9688   -0.0640 C.3       1 <0>         0.1367
      5 N1         -2.8451   -2.5114   -0.0079 N.am      1 <0>        -0.6105
      6 C5         -3.5648   -2.9140    1.2061 C.3       1 <0>         0.2637
      7 H1         -3.6803   -2.0601    1.8737 H         1 <0>         0.0717
      8 C6         -4.9194   -3.4037    0.7500 C.2       1 <0>        -0.5009
      9 C7         -4.9452   -3.2822   -0.5979 C.2       1 <0>         0.2650
     10 C8         -3.6568   -2.7234   -1.0597 C.2       1 <0>         0.5118
     11 O1         -3.3721   -2.4922   -2.2179 O.2       1 <0>        -0.5355
     12 O2         -5.9861   -3.6149   -1.3952 O.3       1 <0>        -0.6528
     13 C9         -5.9975   -3.9128    1.6027 C.2       1 <0>         0.5047
     14 O3         -6.3392   -5.0776    1.5211 O.2       1 <0>        -0.4682
     15 C10        -6.6698   -3.0106    2.5622 C.ar      1 <0>        -0.0970
     16 C11        -6.3675   -1.6469    2.5721 C.ar      1 <0>        -0.0986
     17 C12        -6.9966   -0.8084    3.4686 C.ar      1 <0>        -0.0983
     18 C13        -7.9266   -1.3134    4.3593 C.ar      1 <0>        -0.1949
     19 C14        -8.2337   -2.6675    4.3570 C.ar      1 <0>         0.1098
     20 C15        -7.6129   -3.5175    3.4574 C.ar      1 <0>        -0.1040
     21 O4         -9.1483   -3.1580    5.2345 O.3       1 <0>        -0.3125
     22 C16        -9.7541   -2.2237    6.1301 C.3       1 <0>         0.0863
     23 C17       -10.7333   -2.9440    7.0209 C.2       1 <0>        -0.1513
     24 C18       -10.7516   -2.6985    8.3075 C.2       1 <0>        -0.1766
     25 C19        -2.8207   -4.0217    1.9063 C.ar      1 <0>        -0.0326
     26 C20        -2.3175   -5.0840    1.1779 C.ar      1 <0>        -0.1224
     27 C21        -1.6345   -6.1017    1.8173 C.ar      1 <0>        -0.0827
     28 C22        -1.4533   -6.0599    3.1864 C.ar      1 <0>        -0.2162
     29 C23        -1.9570   -4.9954    3.9193 C.ar      1 <0>         0.1228
     30 C24        -2.6370   -3.9722    3.2744 C.ar      1 <0>        -0.1439
     31 O5         -1.7801   -4.9520    5.2660 O.3       1 <0>        -0.3102
     32 C25        -1.0655   -6.0366    5.8618 C.3       1 <0>         0.1019
     33 C26        -0.9687   -5.8175    7.3496 C.ar      1 <0>        -0.0918
     34 C27         0.1013   -5.1192    7.8772 C.ar      1 <0>        -0.0958
     35 C28         0.1901   -4.9181    9.2420 C.ar      1 <0>        -0.1250
     36 C29        -0.7913   -5.4150   10.0791 C.ar      1 <0>        -0.1132
     37 C30        -1.8618   -6.1126    9.5514 C.ar      1 <0>        -0.1237
     38 C31        -1.9528   -6.3099    8.1863 C.ar      1 <0>        -0.0946
     39 H2          0.8381    2.0506    0.0711 H         1 <0>         0.0507
     40 H3         -0.7615    2.0542   -0.7097 H         1 <0>         0.0535
     41 H4         -0.6357    1.9220    1.0609 H         1 <0>         0.0529
     42 H5          0.3427   -0.1527   -0.9529 H         1 <0>         0.0616
     43 H6          0.4685   -0.2849    0.8176 H         1 <0>         0.0609
     44 H7         -2.0016   -0.1692    1.0018 H         1 <0>         0.0647
     45 H8         -2.1274   -0.0370   -0.7688 H         1 <0>         0.0667
     46 H9         -1.0232   -2.2439   -1.0121 H         1 <0>         0.0762
     47 H10        -0.8975   -2.3761    0.7585 H         1 <0>         0.0737
     48 H11        -5.6414   -1.2493    1.8785 H         1 <0>         0.1362
     49 H12        -6.7621    0.2458    3.4754 H         1 <0>         0.1252
     50 H13        -8.4154   -0.6521    5.0594 H         1 <0>         0.1234
     51 H14        -7.8543   -4.5701    3.4516 H         1 <0>         0.1364
     52 H15        -8.9835   -1.7547    6.7419 H         1 <0>         0.0656
     53 H16       -10.2786   -1.4589    5.5573 H         1 <0>         0.0707
     54 H17       -11.4199   -3.6627    6.5984 H         1 <0>         0.1197
     55 H18       -11.4533   -3.2147    8.9458 H         1 <0>         0.1063
     56 H19       -10.0649   -1.9798    8.7299 H         1 <0>         0.0987
     57 H20        -2.4587   -5.1188    0.1078 H         1 <0>         0.1194
     58 H21        -1.2425   -6.9303    1.2462 H         1 <0>         0.1201
     59 H22        -0.9202   -6.8556    3.6856 H         1 <0>         0.1205
     60 H23        -3.0260   -3.1399    3.8422 H         1 <0>         0.1266
     61 H24        -1.5925   -6.9703    5.6656 H         1 <0>         0.0695
     62 H25        -0.0633   -6.0888    5.4363 H         1 <0>         0.0687
     63 H26         0.8681   -4.7310    7.2232 H         1 <0>         0.1239
     64 H27         1.0265   -4.3732    9.6542 H         1 <0>         0.1236
     65 H28        -0.7215   -5.2586   11.1454 H         1 <0>         0.1222
     66 H29        -2.6284   -6.5010   10.2055 H         1 <0>         0.1242
     67 H30        -2.7910   -6.8516    7.7736 H         1 <0>         0.1251
@<TRIPOS>BOND
     1    1    2 1
     2    1   39 1
     3    1   40 1
     4    1   41 1
     5    2    3 1
     6    2   42 1
     7    2   43 1
     8    3    4 1
     9    3   44 1
    10    3   45 1
    11    4    5 1
    12    4   46 1
    13    4   47 1
    14    5   10 am
    15    5    6 1
    16    6    7 1
    17    6    8 1
    18    6   25 1
    19    8    9 2
    20    8   13 1
    21    9   10 1
    22    9   12 1
    23   10   11 2
    24   13   14 2
    25   13   15 1
    26   15   20 ar
    27   15   16 ar
    28   16   17 ar
    29   16   48 1
    30   17   18 ar
    31   17   49 1
    32   18   19 ar
    33   18   50 1
    34   19   20 ar
    35   19   21 1
    36   20   51 1
    37   21   22 1
    38   22   23 1
    39   22   52 1
    40   22   53 1
    41   23   24 2
    42   23   54 1
    43   24   55 1
    44   24   56 1
    45   25   30 ar
    46   25   26 ar
    47   26   27 ar
    48   26   57 1
    49   27   28 ar
    50   27   58 1
    51   28   29 ar
    52   28   59 1
    53   29   30 ar
    54   29   31 1
    55   30   60 1
    56   31   32 1
    57   32   33 1
    58   32   61 1
    59   32   62 1
    60   33   38 ar
    61   33   34 ar
    62   34   35 ar
    63   34   63 1
    64   35   36 ar
    65   35   64 1
    66   36   37 ar
    67   36   65 1
    68   37   38 ar
    69   37   66 1
    70   38   67 1
@<TRIPOS>MOLECULE
ZINC32943253
   53    56     0     0     0
SMALL
USER_CHARGES

@<TRIPOS>ATOM
      1 C1          0.4837    1.5289    0.0696 C.3       1 <0>        -0.0933
      2 C2         -0.7605    0.6995    0.2565 C.ar      1 <0>        -0.1727
      3 C3         -1.7250    0.6676   -0.7319 C.ar      1 <0>        -0.0675
      4 C4         -2.8668   -0.0928   -0.5617 C.ar      1 <0>        -0.1899
      5 C5         -3.0479   -0.8243    0.5994 C.ar      1 <0>         0.0112
      6 C6         -2.0867   -0.7960    1.5920 C.ar      1 <0>        -0.1600
      7 C7         -0.9357   -0.0380    1.4202 C.ar      1 <0>         0.3108
      8 N1          0.0420   -0.0119    2.4201 N.pl3     1 <0>        -0.7220
      9 C8         -0.1487   -0.7071    3.5796 C.2       1 <0>         0.6007
     10 N2         -0.4704   -0.0438    4.7274 N.2       1 <0>        -0.6442
     11 C9         -0.6112    1.4144    4.7159 C.3       1 <0>         0.0907
     12 C10        -0.9730    1.9029    6.1199 C.3       1 <0>        -0.0257
     13 C11        -1.1179    3.4029    6.1080 C.2       1 <0>        -0.1476
     14 C12        -0.1690    4.2992    6.4213 C.2       1 <0>         0.0376
     15 N3         -0.6658    5.5679    6.2955 N.pl3     1 <0>        -0.5996
     16 H1         -0.1665    6.3815    6.4679 H         1 <0>         0.4115
     17 C13        -1.9800    5.5177    5.8878 C.ar      1 <0>         0.0944
     18 C14        -2.3190    4.1595    5.7464 C.ar      1 <0>        -0.1006
     19 C15        -3.6035    3.8015    5.3336 C.ar      1 <0>        -0.0604
     20 C16        -4.5255    4.7739    5.0652 C.ar      1 <0>        -0.1533
     21 C17        -4.1949    6.1152    5.1992 C.ar      1 <0>        -0.1009
     22 C18        -2.9357    6.4905    5.6142 C.ar      1 <0>        -0.1381
     23 N4         -0.0214   -2.0252    3.5901 N.2       1 <0>        -0.6907
     24 C19         0.1598   -2.6898    2.4410 C.2       1 <0>         0.5005
     25 O1          0.2173   -2.0806    1.3876 O.2       1 <0>        -0.5724
     26 C20         0.2902   -4.1644    2.4514 C.ar      1 <0>        -0.0799
     27 C21         0.0969   -4.8766    3.6356 C.ar      1 <0>        -0.0561
     28 C22         0.2198   -6.2503    3.6390 C.ar      1 <0>        -0.1399
     29 C23         0.5343   -6.9235    2.4712 C.ar      1 <0>        -0.1077
     30 C24         0.7274   -6.2248    1.2937 C.ar      1 <0>        -0.1359
     31 C25         0.6016   -4.8490    1.2753 C.ar      1 <0>        -0.0028
     32 Cl1         0.8367   -3.9734   -0.2052 Cl        1 <0>        -0.0462
     33 Cl2        -4.4836   -1.7774    0.8092 Cl        1 <0>        -0.0955
     34 H2          1.2529    0.9264   -0.4134 H         1 <0>         0.0607
     35 H3          0.2541    2.3929   -0.5540 H         1 <0>         0.0566
     36 H4          0.8440    1.8675    1.0410 H         1 <0>         0.0522
     37 H5         -1.5869    1.2379   -1.6386 H         1 <0>         0.1161
     38 H6         -3.6193   -0.1159   -1.3361 H         1 <0>         0.1154
     39 H7         -2.2283   -1.3662    2.4982 H         1 <0>         0.1252
     40 H8          0.3298    1.8678    4.4046 H         1 <0>         0.0151
     41 H9         -1.3993    1.6978    4.0182 H         1 <0>         0.0219
     42 H10        -1.9141    1.4495    6.4311 H         1 <0>         0.0672
     43 H11        -0.1849    1.6195    6.8175 H         1 <0>         0.0660
     44 H12         0.8375    4.0551    6.7277 H         1 <0>         0.1670
     45 H13        -3.8677    2.7598    5.2264 H         1 <0>         0.1223
     46 H14        -5.5192    4.4965    4.7458 H         1 <0>         0.1195
     47 H15        -4.9341    6.8721    4.9827 H         1 <0>         0.1206
     48 H16        -2.6877    7.5369    5.7143 H         1 <0>         0.1146
     49 H17         0.8556    0.4999    2.2897 H         1 <0>         0.3868
     50 H18        -0.1482   -4.3531    4.5479 H         1 <0>         0.1470
     51 H19         0.0707   -6.8022    4.5553 H         1 <0>         0.1232
     52 H20         0.6297   -7.9992    2.4798 H         1 <0>         0.1227
     53 H21         0.9727   -6.7559    0.3859 H         1 <0>         0.1252
@<TRIPOS>BOND
     1    1    2 1
     2    1   34 1
     3    1   35 1
     4    1   36 1
     5    2    7 ar
     6    2    3 ar
     7    3    4 ar
     8    3   37 1
     9    4    5 ar
    10    4   38 1
    11    5    6 ar
    12    5   33 1
    13    6    7 ar
    14    6   39 1
    15    7    8 1
    16    8   49 1
    17    8    9 1
    18    9   10 1
    19    9   23 2
    20   10   11 1
    21   11   12 1
    22   11   40 1
    23   11   41 1
    24   12   13 1
    25   12   42 1
    26   12   43 1
    27   13   18 1
    28   13   14 2
    29   14   15 1
    30   14   44 1
    31   15   16 1
    32   15   17 1
    33   17   22 ar
    34   17   18 ar
    35   18   19 ar
    36   19   20 ar
    37   19   45 1
    38   20   21 ar
    39   20   46 1
    40   21   22 ar
    41   21   47 1
    42   22   48 1
    43   23   24 1
    44   24   25 2
    45   24   26 1
    46   26   31 ar
    47   26   27 ar
    48   27   28 ar
    49   27   50 1
    50   28   29 ar
    51   28   51 1
    52   29   30 ar
    53   29   52 1
    54   30   31 ar
    55   30   53 1
    56   31   32 1
@<TRIPOS>MOLECULE
ZINC12779138
   59    63     0     0     0
SMALL
USER_CHARGES

@<TRIPOS>ATOM
      1 C1         -0.1555    1.0741   -0.1019 C.ar      1 <0>        -0.1120
      2 C2          1.0211    1.7885   -0.2282 C.ar      1 <0>        -0.1241
      3 C3          2.2349    1.1270   -0.2267 C.ar      1 <0>        -0.0942
      4 C4          2.2721   -0.2489   -0.0986 C.ar      1 <0>        -0.0918
      5 C5          1.0954   -0.9632    0.0285 C.ar      1 <0>        -0.0942
      6 C6         -0.1184   -0.3018    0.0257 C.ar      1 <0>        -0.1242
      7 C7          3.5953   -0.9701   -0.0980 C.3       1 <0>         0.0977
      8 O1          4.0819   -1.0715    1.2417 O.3       1 <0>        -0.2946
      9 C8          5.2732   -1.6992    1.4192 C.ar      1 <0>         0.1116
     10 C9          5.9609   -2.2017    0.3220 C.ar      1 <0>        -0.1720
     11 C10         7.1691   -2.8392    0.4948 C.ar      1 <0>        -0.0940
     12 C11         7.7074   -2.9820    1.7806 C.ar      1 <0>        -0.0716
     13 C12         7.0124   -2.4744    2.8863 C.ar      1 <0>        -0.1451
     14 C13         5.8045   -1.8320    2.7019 C.ar      1 <0>         0.0993
     15 O2          5.1297   -1.3332    3.7720 O.3       1 <0>        -0.2970
     16 C14         5.7323   -1.5046    5.0564 C.3       1 <0>         0.0958
     17 C15         4.8475   -0.8931    6.1120 C.ar      1 <0>        -0.0906
     18 C16         5.0077    0.4339    6.4643 C.ar      1 <0>        -0.0942
     19 C17         4.1962    0.9948    7.4326 C.ar      1 <0>        -0.1246
     20 C18         3.2241    0.2287    8.0484 C.ar      1 <0>        -0.1125
     21 C19         3.0633   -1.0981    7.6954 C.ar      1 <0>        -0.1245
     22 C20         3.8720   -1.6578    6.7240 C.ar      1 <0>        -0.0938
     23 C21         8.9937   -3.6607    1.9684 C.2       1 <0>         0.0099
     24 C22         9.9393   -3.6133    0.9871 C.2       1 <0>         0.0022
     25 C23         9.7372   -2.7838   -0.1626 C.1       1 <0>         0.2822
     26 N1          9.5769   -2.1257   -1.0745 N.1       1 <0>        -0.4327
     27 C24        11.1732   -4.4184    1.1100 C.ar      1 <0>         0.4051
     28 N2         12.0747   -4.3484    0.1459 N.ar      1 <0>        -0.6013
     29 C25        13.2046   -5.0627    0.2227 C.ar      1 <0>         0.1935
     30 C26        14.1832   -5.0127   -0.7810 C.ar      1 <0>        -0.1406
     31 C27        15.3161   -5.7596   -0.6540 C.ar      1 <0>        -0.0834
     32 C28        15.5185   -6.5734    0.4574 C.ar      1 <0>        -0.1886
     33 C29        14.5876   -6.6461    1.4517 C.ar      1 <0>        -0.0278
     34 C30        13.4132   -5.8915    1.3537 C.ar      1 <0>        -0.2315
     35 C31        12.4134   -5.9268    2.3551 C.ar      1 <0>         0.4746
     36 O3         12.5613   -6.7005    3.4550 O.3       1 <0>        -0.6656
     37 N3         11.3340   -5.1816    2.1917 N.ar      1 <0>        -0.6289
     38 H1         -1.1036    1.5914   -0.0986 H         1 <0>         0.1226
     39 H2          0.9921    2.8635   -0.3282 H         1 <0>         0.1241
     40 H3          3.1542    1.6852   -0.3260 H         1 <0>         0.1244
     41 H4          1.1244   -2.0382    0.1282 H         1 <0>         0.1245
     42 H5         -1.0377   -0.8600    0.1246 H         1 <0>         0.1242
     43 H6          3.4646   -1.9692   -0.5137 H         1 <0>         0.0722
     44 H7          4.3117   -0.4153   -0.7038 H         1 <0>         0.0721
     45 H8          5.5466   -2.0925   -0.6694 H         1 <0>         0.1364
     46 H9          7.7014   -3.2293   -0.3601 H         1 <0>         0.1326
     47 H10         7.4226   -2.5816    3.8796 H         1 <0>         0.1447
     48 H11         5.8585   -2.5680    5.2595 H         1 <0>         0.0747
     49 H12         6.7056   -1.0141    5.0694 H         1 <0>         0.0736
     50 H13         5.7672    1.0325    5.9833 H         1 <0>         0.1244
     51 H14         4.3218    2.0314    7.7084 H         1 <0>         0.1236
     52 H15         2.5905    0.6667    8.8054 H         1 <0>         0.1220
     53 H16         2.3040   -1.6967    8.1767 H         1 <0>         0.1238
     54 H17         3.7439   -2.6934    6.4456 H         1 <0>         0.1250
     55 H18         9.1920   -4.1981    2.8840 H         1 <0>         0.1677
     56 H19        14.0395   -4.3865   -1.6492 H         1 <0>         0.1208
     57 H20        16.0685   -5.7199   -1.4278 H         1 <0>         0.1142
     58 H21        16.4251   -7.1554    0.5332 H         1 <0>         0.1121
     59 H22        14.7558   -7.2816    2.3086 H         1 <0>         0.1237
@<TRIPOS>BOND
     1    1    6 ar
     2    1    2 ar
     3    1   38 1
     4    2    3 ar
     5    2   39 1
     6    3    4 ar
     7    3   40 1
     8    4    5 ar
     9    4    7 1
    10    5    6 ar
    11    5   41 1
    12    6   42 1
    13    7    8 1
    14    7   43 1
    15    7   44 1
    16    8    9 1
    17    9   14 ar
    18    9   10 ar
    19   10   11 ar
    20   10   45 1
    21   11   12 ar
    22   11   46 1
    23   12   13 ar
    24   12   23 1
    25   13   14 ar
    26   13   47 1
    27   14   15 1
    28   15   16 1
    29   16   17 1
    30   16   48 1
    31   16   49 1
    32   17   22 ar
    33   17   18 ar
    34   18   19 ar
    35   18   50 1
    36   19   20 ar
    37   19   51 1
    38   20   21 ar
    39   20   52 1
    40   21   22 ar
    41   21   53 1
    42   22   54 1
    43   23   24 2
    44   23   55 1
    45   24   25 1
    46   24   27 1
    47   25   26 3
    48   27   37 ar
    49   27   28 ar
    50   28   29 ar
    51   29   34 ar
    52   29   30 ar
    53   30   31 ar
    54   30   56 1
    55   31   32 ar
    56   31   57 1
    57   32   33 ar
    58   32   58 1
    59   33   34 ar
    60   33   59 1
    61   34   35 ar
    62   35   36 1
    63   35   37 ar
@<TRIPOS>MOLECULE
ZINC06445794
   53    57     0     0     0
SMALL
USER_CHARGES
chloro-(4-chlorophenyl)-(2-nitrophenyl)sulfanyl-BLAHcarboxylic acid
@<TRIPOS>ATOM
      1 C1          1.1135    3.0692    0.8928 C.ar      1 <0>        -0.1264
      2 C2          1.1087    1.6871    0.8373 C.ar      1 <0>        -0.0405
      3 C3         -0.0651    1.0092    0.5754 C.ar      1 <0>        -0.1372
      4 C4         -1.2418    1.7174    0.3614 C.ar      1 <0>        -0.0471
      5 C5         -1.2342    3.1055    0.4232 C.ar      1 <0>        -0.0413
      6 C6         -0.0564    3.7769    0.6861 C.ar      1 <0>        -0.0384
      7 N1         -2.4859    3.8639    0.2025 N.pl3     1 <0>         0.0335
      8 O1         -2.4776    5.0808    0.2527 O.2       1 <0>        -0.1720
      9 O2         -3.5244    3.2710   -0.0292 O.3       1 <0>        -0.1452
     10 S1         -2.7408    0.8567    0.0196 S.3       1 <0>         0.0285
     11 C7         -2.2250   -0.8745   -0.1457 C.3       1 <0>        -0.1312
     12 H1         -1.5841   -1.1543    0.6904 H         1 <0>         0.1095
     13 C8         -3.4649   -1.7935   -0.1938 C.3       1 <0>        -0.0845
     14 C9         -3.7054   -2.0159   -1.7023 C.3       1 <0>        -0.0939
     15 H2         -4.2301   -1.1664   -2.1395 H         1 <0>         0.0956
     16 C10        -4.4922   -3.2970   -1.9361 C.3       1 <0>         0.2105
     17 H3         -4.5902   -3.4755   -3.0069 H         1 <0>         0.0787
     18 N2         -3.7790   -4.4188   -1.3150 N.pl3     1 <0>        -0.7492
     19 H4         -4.2450   -5.0515   -0.7463 H         1 <0>         0.3998
     20 C11        -2.4148   -4.5514   -1.5644 C.ar      1 <0>         0.2206
     21 C12        -1.8056   -5.7855   -1.3421 C.ar      1 <0>        -0.2153
     22 C13        -0.4710   -5.9482   -1.5783 C.ar      1 <0>        -0.0266
     23 C14         0.2873   -4.8702   -2.0463 C.ar      1 <0>        -0.1750
     24 C15        -0.3227   -3.6342   -2.2687 C.ar      1 <0>        -0.0244
     25 C16        -1.6749   -3.4727   -2.0276 C.ar      1 <0>        -0.1904
     26 C17        -2.2849   -2.1200   -2.2816 C.3       1 <0>        -0.0230
     27 H5         -2.2726   -1.8836   -3.3456 H         1 <0>         0.0965
     28 C18        -1.4759   -1.0768   -1.4750 C.3       1 <0>        -0.0130
     29 H6         -1.4275   -0.1361   -2.0235 H         1 <0>         0.1100
     30 Cl1         0.1880   -1.6950   -1.1588 Cl        1 <0>        -0.1097
     31 C19         1.7284   -5.0390   -2.3050 C.2       1 <0>         0.4936
     32 O3          2.3864   -4.1020   -2.7120 O.co2     1 <0>        -0.6387
     33 C20        -5.8612   -3.1671   -1.3196 C.ar      1 <0>        -0.0830
     34 C21        -6.0271   -3.3528    0.0402 C.ar      1 <0>        -0.0957
     35 C22        -7.2815   -3.2282    0.6070 C.ar      1 <0>        -0.1083
     36 C23        -8.3731   -2.9288   -0.1885 C.ar      1 <0>        -0.0330
     37 C24        -8.2074   -2.7487   -1.5502 C.ar      1 <0>        -0.1078
     38 C25        -6.9516   -2.8679   -2.1150 C.ar      1 <0>        -0.0931
     39 Cl2        -9.9501   -2.7786    0.5217 Cl        1 <0>        -0.0727
     40 H7          2.0332    3.5969    1.0978 H         1 <0>         0.1491
     41 H8          2.0243    1.1376    0.9993 H         1 <0>         0.1477
     42 H9         -0.0682   -0.0700    0.5326 H         1 <0>         0.1536
     43 H10        -0.0490    4.8560    0.7305 H         1 <0>         0.1554
     44 H11        -3.2580   -2.7408    0.3040 H         1 <0>         0.0970
     45 H12        -4.3238   -1.3007    0.2616 H         1 <0>         0.0822
     46 H13        -2.3926   -6.6172   -0.9815 H         1 <0>         0.1106
     47 H14        -0.0024   -6.9055   -1.4041 H         1 <0>         0.1252
     48 H15         0.2631   -2.8018   -2.6296 H         1 <0>         0.1476
     49 H16        -5.1756   -3.5909    0.6604 H         1 <0>         0.1352
     50 H17        -7.4102   -3.3690    1.6700 H         1 <0>         0.1335
     51 H18        -9.0591   -2.5146   -2.1716 H         1 <0>         0.1342
     52 H19        -6.8221   -2.7270   -3.1779 H         1 <0>         0.1349
     53 O4          2.3163   -6.2324   -2.0901 O.co2     1 <0>        -0.7660
@<TRIPOS>BOND
     1    1    6 ar
     2    1    2 ar
     3    1   40 1
     4    2    3 ar
     5    2   41 1
     6    3    4 ar
     7    3   42 1
     8    4    5 ar
     9    4   10 1
    10    5    6 ar
    11    5    7 1
    12    6   43 1
    13    7    8 2
    14    7    9 1
    15   10   11 1
    16   11   12 1
    17   11   28 1
    18   11   13 1
    19   13   14 1
    20   13   44 1
    21   13   45 1
    22   14   15 1
    23   14   26 1
    24   14   16 1
    25   16   17 1
    26   16   18 1
    27   16   33 1
    28   18   19 1
    29   18   20 1
    30   20   25 ar
    31   20   21 ar
    32   21   22 ar
    33   21   46 1
    34   22   23 ar
    35   22   47 1
    36   23   24 ar
    37   23   31 1
    38   24   25 ar
    39   24   48 1
    40   25   26 1
    41   26   27 1
    42   26   28 1
    43   28   29 1
    44   28   30 1
    45   31   32 2
    46   31   53 1
    47   33   38 ar
    48   33   34 ar
    49   34   35 ar
    50   34   49 1
    51   35   36 ar
    52   35   50 1
    53   36   37 ar
    54   36   39 1
    55   37   38 ar
    56   37   51 1
    57   38   52 1
@<TRIPOS>MOLECULE
ZINC26460864
   66    71     0     0     0
SMALL
USER_CHARGES
N-[(8R)-8-(1,1-dimethylpropyl)-6,7,8,9-tetrahydrodibenzofuran-2-yl]-9,10-dioxo-anthracene-2-sulfonamide
@<TRIPOS>ATOM
      1 C1          2.3588   15.7884    9.2676 C.3       1 <0>        -0.1575
      2 C2          2.4192   14.3490    8.7525 C.3       1 <0>        -0.1157
      3 C3          1.5785   14.2270    7.4800 C.3       1 <0>        -0.0565
      4 C4          2.1292   15.1743    6.4121 C.3       1 <0>        -0.1508
      5 C5          0.1268   14.5972    7.7904 C.3       1 <0>        -0.1483
      6 C6          1.6388   12.7876    6.9649 C.3       1 <0>        -0.0761
      7 H1          1.2420   12.1096    7.7348 H         1 <0>         0.0733
      8 C7          3.0916   12.4163    6.6540 C.3       1 <0>        -0.1148
      9 C8          3.1873   10.9124    6.3747 C.3       1 <0>        -0.0370
     10 C9          2.1354   10.5456    5.3526 C.2       1 <0>         0.0110
     11 C10         1.0847   11.3287    5.0552 C.2       1 <0>        -0.1739
     12 C11         0.3139   10.6271    4.0309 C.ar      1 <0>        -0.1039
     13 C12        -0.8553   10.9031    3.3225 C.ar      1 <0>        -0.1168
     14 C13        -1.3229    9.9921    2.3928 C.ar      1 <0>         0.2020
     15 C14        -0.6317    8.8030    2.1697 C.ar      1 <0>        -0.1188
     16 C15         0.5265    8.5255    2.8617 C.ar      1 <0>        -0.1026
     17 C16         1.0114    9.4280    3.7995 C.ar      1 <0>         0.0100
     18 O1          2.0897    9.4260    4.6129 O.3       1 <0>        -0.1999
     19 N1         -2.4955   10.2626    1.6789 N.2       1 <0>        -1.0692
     20 S1         -2.4100   10.7302    0.0926 S.o2      1 <0>         2.5759
     21 O2         -3.7413   11.0023   -0.3230 O.2       1 <0>        -0.9923
     22 O3         -1.5851    9.7796   -0.5671 O.2       1 <0>        -1.0328
     23 C17        -1.5449   12.2646    0.0478 C.ar      1 <0>        -0.6324
     24 C18        -0.1844   12.2792   -0.1995 C.ar      1 <0>        -0.0091
     25 C19         0.5079   13.4770   -0.2385 C.ar      1 <0>        -0.0888
     26 C20        -0.1673   14.6757   -0.0275 C.ar      1 <0>        -0.0977
     27 C21        -1.5508   14.6610    0.2244 C.ar      1 <0>        -0.1490
     28 C22        -2.2317   13.4474    0.2598 C.ar      1 <0>         0.0257
     29 C23        -2.2758   15.9293    0.4485 C.2       1 <0>         0.4344
     30 O4         -3.4711   15.9166    0.6662 O.2       1 <0>        -0.4267
     31 C24        -1.5444   17.2131    0.4084 C.ar      1 <0>        -0.1110
     32 C25        -2.2191   18.4123    0.6187 C.ar      1 <0>        -0.0714
     33 C26        -1.5263   19.6098    0.5788 C.ar      1 <0>        -0.1003
     34 C27        -0.1660   19.6241    0.3307 C.ar      1 <0>        -0.1037
     35 C28         0.5194   18.4414    0.1143 C.ar      1 <0>        -0.0705
     36 C29        -0.1610   17.2277    0.1566 C.ar      1 <0>        -0.1173
     37 C30         0.5640   15.9594   -0.0679 C.2       1 <0>         0.4361
     38 O5          1.7594   15.9721   -0.2848 O.2       1 <0>        -0.4317
     39 C31         0.7999   12.6655    5.6865 C.3       1 <0>        -0.0449
     40 H2          2.9632   15.8761   10.1825 H         1 <0>         0.0489
     41 H3          1.3151   16.0545    9.4908 H         1 <0>         0.0566
     42 H4          2.7547   16.4695    8.4999 H         1 <0>         0.0567
     43 H5          3.4629   14.0829    8.5293 H         1 <0>         0.0648
     44 H6          2.0233   13.6679    9.5202 H         1 <0>         0.0605
     45 H7          1.5248   15.0866    5.4973 H         1 <0>         0.0597
     46 H8          3.1729   14.9082    6.1889 H         1 <0>         0.0567
     47 H9          2.0858   16.2092    6.7824 H         1 <0>         0.0552
     48 H10        -0.4776   14.5095    6.8755 H         1 <0>         0.0596
     49 H11         0.0835   15.6321    8.1607 H         1 <0>         0.0559
     50 H12        -0.2691   13.9162    8.5581 H         1 <0>         0.0539
     51 H13         3.4318   12.9754    5.7698 H         1 <0>         0.0709
     52 H14         3.7273   12.6700    7.5151 H         1 <0>         0.0782
     53 H15         4.1881   10.6748    5.9849 H         1 <0>         0.0811
     54 H16         3.0151   10.3546    7.3070 H         1 <0>         0.0828
     55 H17        -1.3929   11.8230    3.4993 H         1 <0>         0.1134
     56 H18        -1.0052    8.0945    1.4452 H         1 <0>         0.1307
     57 H19         1.0564    7.6026    2.6774 H         1 <0>         0.1171
     58 H20         0.3411   11.3501   -0.3635 H         1 <0>         0.1473
     59 H21         1.5704   13.4815   -0.4321 H         1 <0>         0.1426
     60 H22        -3.2942   13.4288    0.4527 H         1 <0>         0.1527
     61 H23        -3.2815   18.4083    0.8130 H         1 <0>         0.1439
     62 H24        -2.0516   20.5391    0.7422 H         1 <0>         0.1364
     63 H25         0.3642   20.5645    0.3012 H         1 <0>         0.1360
     64 H26         1.5810   18.4597   -0.0830 H         1 <0>         0.1422
     65 H27        -0.2678   12.7415    5.9399 H         1 <0>         0.0740
     66 H28         1.0703   13.4744    4.9918 H         1 <0>         0.0753
@<TRIPOS>BOND
     1    1    2 1
     2    1   40 1
     3    1   41 1
     4    1   42 1
     5    2    3 1
     6    2   43 1
     7    2   44 1
     8    3    4 1
     9    3    5 1
    10    3    6 1
    11    4   45 1
    12    4   46 1
    13    4   47 1
    14    5   48 1
    15    5   49 1
    16    5   50 1
    17    6    7 1
    18    6   39 1
    19    6    8 1
    20    8    9 1
    21    8   51 1
    22    8   52 1
    23    9   10 1
    24    9   53 1
    25    9   54 1
    26   10   18 1
    27   10   11 2
    28   11   12 1
    29   11   39 1
    30   12   17 ar
    31   12   13 ar
    32   13   14 ar
    33   13   55 1
    34   14   15 ar
    35   14   19 1
    36   15   16 ar
    37   15   56 1
    38   16   17 ar
    39   16   57 1
    40   17   18 1
    41   19   20 1
    42   20   21 2
    43   20   22 2
    44   20   23 1
    45   23   28 ar
    46   23   24 ar
    47   24   25 ar
    48   24   58 1
    49   25   26 ar
    50   25   59 1
    51   26   37 1
    52   26   27 ar
    53   27   28 ar
    54   27   29 1
    55   28   60 1
    56   29   30 2
    57   29   31 1
    58   31   36 ar
    59   31   32 ar
    60   32   33 ar
    61   32   61 1
    62   33   34 ar
    63   33   62 1
    64   34   35 ar
    65   34   63 1
    66   35   36 ar
    67   35   64 1
    68   36   37 1
    69   37   38 2
    70   39   65 1
    71   39   66 1
@<TRIPOS>MOLECULE
ZINC06445833
   53    57     0     0     0
SMALL
USER_CHARGES

@<TRIPOS>ATOM
      1 C1         -0.0167    1.3786    0.0096 C.ar      1 <0>        -0.1258
      2 C2          1.1697    2.0898    0.0021 C.ar      1 <0>        -0.0401
      3 C3          2.3774    1.4209   -0.0134 C.ar      1 <0>        -0.1448
      4 C4          2.4001    0.0312   -0.0211 C.ar      1 <0>        -0.0484
      5 C5          1.2063   -0.6799   -0.0130 C.ar      1 <0>        -0.0458
      6 C6          0.0021   -0.0041    0.0020 C.ar      1 <0>        -0.0380
      7 N1          1.2254   -2.1598   -0.0216 N.pl3     1 <0>         0.0392
      8 O1          0.1863   -2.7778   -0.0146 O.2       1 <0>        -0.1686
      9 O2          2.2800   -2.7507   -0.0356 O.3       1 <0>        -0.1456
     10 S1          3.9390   -0.8268   -0.0415 S.3       1 <0>         0.0314
     11 C7          5.1793    0.4969   -0.0472 C.3       1 <0>        -0.1345
     12 H1          5.0077    1.1738    0.7897 H         1 <0>         0.1128
     13 C8          6.6081   -0.1099    0.0414 C.3       1 <0>        -0.0808
     14 C9          7.4266    0.8184   -0.8595 C.3       1 <0>        -0.0982
     15 H2          7.6109    1.7686   -0.3582 H         1 <0>         0.0965
     16 C10         8.7214    0.2569   -1.4198 C.3       1 <0>         0.2129
     17 H3          8.5208   -0.6467   -1.9954 H         1 <0>         0.0801
     18 N2          9.2729    1.3085   -2.2991 N.pl3     1 <0>        -0.7476
     19 C11         8.4360    2.1346   -3.0453 C.ar      1 <0>         0.2130
     20 C12         9.0059    3.0755   -3.9029 C.ar      1 <0>        -0.2077
     21 C13         8.2169    3.9127   -4.6358 C.ar      1 <0>        -0.0387
     22 C14         6.8233    3.8319   -4.5300 C.ar      1 <0>        -0.1806
     23 C15         6.2481    2.8837   -3.6766 C.ar      1 <0>        -0.0220
     24 C16         7.0409    2.0434   -2.9525 C.ar      1 <0>        -0.1650
     25 C17         6.4577    1.0143   -2.0575 C.3       1 <0>        -0.0375
     26 H4          6.3875    0.0796   -2.6137 H         1 <0>         0.0914
     27 C18         5.1182    1.2783   -1.3856 C.3       1 <0>         0.0034
     28 H5          4.3032    0.9045   -2.0053 H         1 <0>         0.1121
     29 Cl1         4.9102    3.0417   -1.0722 Cl        1 <0>        -0.1425
     30 C19         5.9682    4.7386   -5.3120 C.2       1 <0>         0.5229
     31 O3          6.4747    5.5661   -6.0574 O.co2     1 <0>        -0.6956
     32 O4          4.7506    4.6651   -5.2169 O.co2     1 <0>        -0.6929
     33 C20         9.6840   -0.0446   -0.3001 C.ar      1 <0>        -0.0852
     34 C21        10.4188    0.9764    0.2731 C.ar      1 <0>        -0.0909
     35 C22        11.3018    0.7005    1.3000 C.ar      1 <0>        -0.1090
     36 C23        11.4501   -0.5979    1.7543 C.ar      1 <0>        -0.0337
     37 C24        10.7144   -1.6193    1.1802 C.ar      1 <0>        -0.1089
     38 C25         9.8276   -1.3413    0.1572 C.ar      1 <0>        -0.0935
     39 Cl2        12.5593   -0.9454    3.0437 Cl        1 <0>        -0.0731
     40 H6         -0.9599    1.9044    0.0260 H         1 <0>         0.1492
     41 H7          1.1513    3.1696    0.0081 H         1 <0>         0.1474
     42 H8          3.3033    1.9769   -0.0200 H         1 <0>         0.1583
     43 H9         -0.9262   -0.5561    0.0082 H         1 <0>         0.1556
     44 H10         6.9782   -0.0786    1.0661 H         1 <0>         0.0887
     45 H11         6.6191   -1.1297   -0.3433 H         1 <0>         0.0864
     46 H12        10.2340    1.4253   -2.3578 H         1 <0>         0.3970
     47 H13        10.0806    3.1419   -3.9869 H         1 <0>         0.1105
     48 H14         8.6673    4.6379   -5.2974 H         1 <0>         0.1238
     49 H15         5.1736    2.8180   -3.5907 H         1 <0>         0.1239
     50 H16        10.3032    1.9898   -0.0818 H         1 <0>         0.1358
     51 H17        11.8761    1.4982    1.7475 H         1 <0>         0.1333
     52 H18        10.8300   -2.6331    1.5342 H         1 <0>         0.1345
     53 H19         9.2497   -2.1378   -0.2878 H         1 <0>         0.1349
@<TRIPOS>BOND
     1    1    6 ar
     2    1    2 ar
     3    1   40 1
     4    2    3 ar
     5    2   41 1
     6    3    4 ar
     7    3   42 1
     8    4    5 ar
     9    4   10 1
    10    5    6 ar
    11    5    7 1
    12    6   43 1
    13    7    8 2
    14    7    9 1
    15   10   11 1
    16   11   12 1
    17   11   27 1
    18   11   13 1
    19   13   14 1
    20   13   44 1
    21   13   45 1
    22   14   15 1
    23   14   25 1
    24   14   16 1
    25   16   17 1
    26   16   18 1
    27   16   33 1
    28   18   19 1
    29   18   46 1
    30   19   24 ar
    31   19   20 ar
    32   20   21 ar
    33   20   47 1
    34   21   22 ar
    35   21   48 1
    36   22   23 ar
    37   22   30 1
    38   23   24 ar
    39   23   49 1
    40   24   25 1
    41   25   26 1
    42   25   27 1
    43   27   28 1
    44   27   29 1
    45   30   31 2
    46   30   32 1
    47   33   38 ar
    48   33   34 ar
    49   34   35 ar
    50   34   50 1
    51   35   36 ar
    52   35   51 1
    53   36   37 ar
    54   36   39 1
    55   37   38 ar
    56   37   52 1
    57   38   53 1
@<TRIPOS>MOLECULE
ZINC09030081
   56    61     0     0     0
SMALL
USER_CHARGES

@<TRIPOS>ATOM
      1 C1          0.0283    1.4593   -0.0435 C.ar      1 <0>        -0.1187
      2 C2          1.2188    2.1438   -0.2115 C.ar      1 <0>        -0.1165
      3 C3          2.4169    1.4596   -0.2145 C.ar      1 <0>        -0.1097
      4 C4          2.4261    0.0743   -0.0477 C.ar      1 <0>        -0.0393
      5 C5          1.2219   -0.6101    0.1212 C.ar      1 <0>        -0.0864
      6 C6          0.0306    0.0858    0.1223 C.ar      1 <0>        -0.1146
      7 C7          3.7075   -0.6660   -0.0504 C.ar      1 <0>         0.0382
      8 C8          4.0340   -1.5566   -1.0912 C.ar      1 <0>        -0.0319
      9 N1          5.1899   -2.2037   -1.0639 N.ar      1 <0>        -0.1611
     10 N2          6.0426   -2.0561   -0.1181 N.ar      1 <0>        -0.3297
     11 C9          5.8386   -1.2450    0.9092 C.ar      1 <0>         0.3950
     12 O1          6.7764   -1.1292    1.8796 O.3       1 <0>        -0.6636
     13 C10         4.6495   -0.5010    0.9864 C.ar      1 <0>        -0.2479
     14 C11         4.3931    0.4156    2.1135 C.2       1 <0>         0.6160
     15 O2          3.8351    0.0078    3.1139 O.2       1 <0>        -0.4938
     16 N3          4.7773    1.7050    2.0344 N.am      1 <0>        -0.6014
     17 C12         4.5360    2.5676    3.0950 C.2       1 <0>         0.3459
     18 N4          4.8251    3.8504    3.2107 N.2       1 <0>        -0.5459
     19 C13         4.5191    4.5283    4.3069 C.2       1 <0>         0.1185
     20 C14         3.8914    3.8868    5.3388 C.2       1 <0>        -0.2587
     21 S1          3.7443    2.2378    4.6633 S.3       1 <0>         0.1143
     22 C15         4.8542    5.9686    4.4142 C.ar      1 <0>        -0.0157
     23 C16         4.5295    6.6739    5.5849 C.ar      1 <0>        -0.0964
     24 C17         4.8258    7.9933    5.7081 C.ar      1 <0>        -0.1107
     25 C18         5.4661    8.6714    4.6551 C.ar      1 <0>        -0.0507
     26 C19         5.7837   10.0362    4.7583 C.ar      1 <0>        -0.1087
     27 C20         6.4038   10.6648    3.7223 C.ar      1 <0>        -0.1179
     28 C21         6.7306    9.9753    2.5561 C.ar      1 <0>        -0.1224
     29 C22         6.4385    8.6532    2.4194 C.ar      1 <0>        -0.0993
     30 C23         5.7985    7.9697    3.4687 C.ar      1 <0>        -0.0533
     31 C24         5.4888    6.6049    3.3635 C.ar      1 <0>        -0.0712
     32 C25         3.0883   -1.7697   -2.2121 C.ar      1 <0>         0.0082
     33 C26         2.4491   -0.6816   -2.8050 C.ar      1 <0>        -0.1052
     34 C27         1.5699   -0.8861   -3.8487 C.ar      1 <0>        -0.1206
     35 C28         1.3220   -2.1677   -4.3068 C.ar      1 <0>        -0.1297
     36 C29         1.9528   -3.2512   -3.7223 C.ar      1 <0>        -0.1228
     37 C30         2.8388   -3.0585   -2.6819 C.ar      1 <0>        -0.0977
     38 H1         -0.9066    2.0001   -0.0374 H         1 <0>         0.1197
     39 H2          1.2103    3.2160   -0.3409 H         1 <0>         0.1214
     40 H3          3.3455    1.9950   -0.3460 H         1 <0>         0.1179
     41 H4          1.2225   -1.6823    0.2508 H         1 <0>         0.1225
     42 H5         -0.9021   -0.4428    0.2533 H         1 <0>         0.1224
     43 H6          5.2224    2.0304    1.2363 H         1 <0>         0.4250
     44 H7          3.5693    4.2711    6.2954 H         1 <0>         0.1944
     45 H8          4.0375    6.1601    6.3975 H         1 <0>         0.1265
     46 H9          4.5695    8.5221    6.6143 H         1 <0>         0.1286
     47 H10         5.5366   10.5842    5.6555 H         1 <0>         0.1250
     48 H11         6.6460   11.7141    3.8053 H         1 <0>         0.1206
     49 H12         7.2224   10.4978    1.7490 H         1 <0>         0.1216
     50 H13         6.6968    8.1315    1.5098 H         1 <0>         0.1275
     51 H14         5.7406    6.0571    2.4675 H         1 <0>         0.1391
     52 H15         2.6414    0.3193   -2.4477 H         1 <0>         0.1192
     53 H16         1.0742   -0.0441   -4.3087 H         1 <0>         0.1162
     54 H17         0.6328   -2.3229   -5.1237 H         1 <0>         0.1148
     55 H18         1.7551   -4.2495   -4.0838 H         1 <0>         0.1183
     56 H19         3.3344   -3.9047   -2.2295 H         1 <0>         0.1244
@<TRIPOS>BOND
     1    1    6 ar
     2    1    2 ar
     3    1   38 1
     4    2    3 ar
     5    2   39 1
     6    3    4 ar
     7    3   40 1
     8    4    5 ar
     9    4    7 1
    10    5    6 ar
    11    5   41 1
    12    6   42 1
    13    7   13 ar
    14    7    8 ar
    15    8   32 1
    16    8    9 ar
    17    9   10 ar
    18   10   11 ar
    19   11   12 1
    20   11   13 ar
    21   13   14 1
    22   14   15 2
    23   14   16 am
    24   16   17 1
    25   16   43 1
    26   17   21 1
    27   17   18 2
    28   18   19 1
    29   19   20 2
    30   19   22 1
    31   20   21 1
    32   20   44 1
    33   22   31 ar
    34   22   23 ar
    35   23   24 ar
    36   23   45 1
    37   24   25 ar
    38   24   46 1
    39   25   30 ar
    40   25   26 ar
    41   26   27 ar
    42   26   47 1
    43   27   28 ar
    44   27   48 1
    45   28   29 ar
    46   28   49 1
    47   29   30 ar
    48   29   50 1
    49   30   31 ar
    50   31   51 1
    51   32   37 ar
    52   32   33 ar
    53   33   34 ar
    54   33   52 1
    55   34   35 ar
    56   34   53 1
    57   35   36 ar
    58   35   54 1
    59   36   37 ar
    60   36   55 1
    61   37   56 1
@<TRIPOS>MOLECULE
ZINC59105350
   64    68     0     0     0
SMALL
USER_CHARGES

@<TRIPOS>ATOM
      1 C1         -0.0187    1.5258    0.0104 C.3       1 <0>        -0.1463
      2 C2          0.0021   -0.0041    0.0020 C.3       1 <0>         0.0643
      3 O1          0.6709   -0.4649   -1.1737 O.3       1 <0>        -0.3192
      4 C3          0.7757   -1.7966   -1.3345 C.2       1 <0>         0.4957
      5 O2          0.2622   -2.6283   -0.4100 O.3       1 <0>        -0.6284
      6 C4          1.4143   -2.3130   -2.4555 C.2       1 <0>        -0.4622
      7 C5          1.5534   -3.7581   -2.6751 C.2       1 <0>         0.3145
      8 S1          2.4282   -3.8724   -4.2217 S.3       1 <0>        -0.0983
      9 C6          2.6243   -2.1439   -4.6008 C.2       1 <0>        -0.1794
     10 C7          3.2292   -1.5874   -5.6820 C.2       1 <0>         0.0156
     11 C8          3.8217   -2.4460   -6.7140 C.2       1 <0>        -0.1397
     12 C9          3.8429   -3.9137   -6.7364 C.2       1 <0>        -0.1550
     13 C10         4.4848   -4.2715   -7.8619 C.2       1 <0>         0.0138
     14 N1          4.8636   -3.1469   -8.5396 N.pl3     1 <0>        -0.4036
     15 C11         4.4671   -2.0376   -7.8640 C.2       1 <0>         0.0508
     16 C12         4.6943   -0.6110   -8.2930 C.3       1 <0>        -0.0852
     17 C13         5.5558   -3.1395   -9.7574 C.ar      1 <0>         0.1286
     18 C14         6.8552   -2.6219   -9.8123 C.ar      1 <0>        -0.1085
     19 C15         7.5506   -2.6024  -10.9799 C.ar      1 <0>        -0.0920
     20 C16         6.9638   -3.1072  -12.1536 C.ar      1 <0>        -0.0503
     21 C17         7.6590   -3.1005  -13.3749 C.ar      1 <0>        -0.1051
     22 C18         7.0625   -3.5970  -14.4929 C.ar      1 <0>        -0.1140
     23 C19         5.7688   -4.1136  -14.4471 C.ar      1 <0>        -0.1145
     24 C20         5.0647   -4.1363  -13.2828 C.ar      1 <0>        -0.1019
     25 C21         5.6483   -3.6330  -12.1069 C.ar      1 <0>        -0.0425
     26 C22         4.9531   -3.6464  -10.8866 C.ar      1 <0>        -0.0942
     27 C23         4.7458   -5.6878   -8.3057 C.3       1 <0>        -0.0824
     28 C24         1.9752   -1.4608   -3.4768 C.2       1 <0>         0.4292
     29 O3          1.9167   -0.2441   -3.4069 O.2       1 <0>        -0.4985
     30 N2          1.1293   -4.7428   -1.9054 N.2       1 <0>        -0.4864
     31 C25         1.3500   -6.0400   -2.2721 C.ar      1 <0>         0.1315
     32 C26         1.1215   -6.4458   -3.5900 C.ar      1 <0>        -0.1674
     33 C27         1.3470   -7.7571   -3.9529 C.ar      1 <0>        -0.0964
     34 C28         1.7982   -8.6702   -3.0160 C.ar      1 <0>        -0.1304
     35 C29         2.0267   -8.2758   -1.7093 C.ar      1 <0>        -0.1031
     36 C30         1.8108   -6.9668   -1.3328 C.ar      1 <0>        -0.1255
     37 C31         2.0417  -10.1013   -3.4206 C.3       1 <0>        -0.1030
     38 H1          1.0039    1.9031    0.0027 H         1 <0>         0.0610
     39 H2         -0.5459    1.8868   -0.8726 H         1 <0>         0.0610
     40 H3         -0.5289    1.8773    0.9072 H         1 <0>         0.0666
     41 H4          0.5293   -0.3651    0.8851 H         1 <0>         0.0548
     42 H5         -1.0205   -0.3814    0.0098 H         1 <0>         0.0547
     43 H6          3.2741   -0.5130   -5.7823 H         1 <0>         0.1389
     44 H7          3.4249   -4.5766   -5.9933 H         1 <0>         0.1579
     45 H8          5.6440   -0.2577   -7.8913 H         1 <0>         0.0738
     46 H9          4.7181   -0.5582   -9.3814 H         1 <0>         0.0630
     47 H10         3.8853    0.0149   -7.9165 H         1 <0>         0.0854
     48 H11         7.3115   -2.2323   -8.9142 H         1 <0>         0.1311
     49 H12         8.5523   -2.1994  -11.0062 H         1 <0>         0.1352
     50 H13         8.6618   -2.7028  -13.4261 H         1 <0>         0.1288
     51 H14         7.5996   -3.5903  -15.4299 H         1 <0>         0.1242
     52 H15         5.3184   -4.5012  -15.3490 H         1 <0>         0.1248
     53 H16         4.0628   -4.5390  -13.2622 H         1 <0>         0.1291
     54 H17         3.9518   -4.0477  -10.8353 H         1 <0>         0.1349
     55 H18         3.9155   -6.0347   -8.9208 H         1 <0>         0.0686
     56 H19         5.6676   -5.7226   -8.8864 H         1 <0>         0.0597
     57 H20         4.8431   -6.3306   -7.4308 H         1 <0>         0.0820
     58 H21         0.7690   -5.7344   -4.3222 H         1 <0>         0.1250
     59 H22         1.1705   -8.0722   -4.9708 H         1 <0>         0.1137
     60 H23         2.3788   -8.9939   -0.9836 H         1 <0>         0.1155
     61 H24         1.9938   -6.6594   -0.3137 H         1 <0>         0.1214
     62 H25         3.0718  -10.2131   -3.7588 H         1 <0>         0.0612
     63 H26         1.8667  -10.7552   -2.5663 H         1 <0>         0.0586
     64 H27         1.3625  -10.3707   -4.2295 H         1 <0>         0.0586
@<TRIPOS>BOND
     1    1    2 1
     2    1   38 1
     3    1   39 1
     4    1   40 1
     5    2    3 1
     6    2   41 1
     7    2   42 1
     8    3    4 1
     9    4    5 1
    10    4    6 2
    11    6    7 1
    12    6   28 1
    13    7   30 2
    14    7    8 1
    15    8    9 1
    16    9   10 2
    17    9   28 1
    18   10   11 1
    19   10   43 1
    20   11   15 2
    21   11   12 1
    22   12   13 2
    23   12   44 1
    24   13   14 1
    25   13   27 1
    26   14   15 1
    27   14   17 1
    28   15   16 1
    29   16   45 1
    30   16   46 1
    31   16   47 1
    32   17   26 ar
    33   17   18 ar
    34   18   19 ar
    35   18   48 1
    36   19   20 ar
    37   19   49 1
    38   20   25 ar
    39   20   21 ar
    40   21   22 ar
    41   21   50 1
    42   22   23 ar
    43   22   51 1
    44   23   24 ar
    45   23   52 1
    46   24   25 ar
    47   24   53 1
    48   25   26 ar
    49   26   54 1
    50   27   55 1
    51   27   56 1
    52   27   57 1
    53   28   29 2
    54   30   31 1
    55   31   36 ar
    56   31   32 ar
    57   32   33 ar
    58   32   58 1
    59   33   34 ar
    60   33   59 1
    61   34   35 ar
    62   34   37 1
    63   35   36 ar
    64   35   60 1
    65   36   61 1
    66   37   62 1
    67   37   63 1
    68   37   64 1
@<TRIPOS>MOLECULE
ZINC13297910
   73    76     0     0     0
SMALL
USER_CHARGES

@<TRIPOS>ATOM
      1 C1          0.7616   -3.2874    2.3550 C.3       1 <0>        -0.1546
      2 C2          0.3931   -2.3946    1.1685 C.3       1 <0>        -0.1254
      3 C3          1.1089   -2.8948   -0.0879 C.3       1 <0>        -0.1151
      4 C4          0.7403   -2.0020   -1.2744 C.3       1 <0>        -0.0815
      5 C5          1.4453   -2.4947   -2.5119 C.ar      1 <0>        -0.0894
      6 C6          2.7019   -2.0120   -2.8284 C.ar      1 <0>        -0.0969
      7 C7          3.3507   -2.4615   -3.9617 C.ar      1 <0>        -0.1149
      8 C8          2.7399   -3.3997   -4.7836 C.ar      1 <0>         0.1344
      9 C9          1.4781   -3.8829   -4.4626 C.ar      1 <0>        -0.1377
     10 C10         0.8367   -3.4329   -3.3253 C.ar      1 <0>        -0.0980
     11 N1          3.3943   -3.8569   -5.9327 N.am      1 <0>        -0.6650
     12 C11         4.7371   -3.9722   -5.9427 C.2       1 <0>         0.5343
     13 O1          5.3705   -3.7721   -4.9280 O.2       1 <0>        -0.4912
     14 C12         5.4515   -4.3499   -7.2148 C.3       1 <0>        -0.1738
     15 S1          7.2376   -4.4230   -6.9063 S.3       1 <0>         0.0306
     16 C13         7.9218   -4.8702   -8.4672 C.2       1 <0>         0.1473
     17 C14         9.2666   -5.0224   -8.6006 C.2       1 <0>        -0.0886
     18 C15         9.8751   -5.4103   -9.9161 C.3       1 <0>         0.0929
     19 H1         10.7775   -4.8212  -10.0801 H         1 <0>         0.0970
     20 C16         8.9138   -5.1690  -11.0525 C.2       1 <0>        -0.2613
     21 C17         7.5921   -5.0175  -10.8230 C.2       1 <0>         0.2192
     22 N2          7.0944   -5.0705   -9.5478 N.pl3     1 <0>        -0.6399
     23 C18         6.6265   -4.7956  -11.9612 C.3       1 <0>        -0.0889
     24 C19         7.3289   -4.0389  -13.0907 C.3       1 <0>        -0.0517
     25 C20         8.5430   -4.8575  -13.5421 C.3       1 <0>        -0.1594
     26 C21         9.4348   -5.1052  -12.3565 C.2       1 <0>         0.4058
     27 O2         10.6285   -5.2526  -12.5292 O.2       1 <0>        -0.4619
     28 C22         6.3653   -3.8579  -14.2653 C.3       1 <0>        -0.1423
     29 C23         7.7907   -2.6712  -12.5838 C.3       1 <0>        -0.1533
     30 C24        10.2392   -6.8722   -9.8802 C.ar      1 <0>        -0.1106
     31 C25         9.2572   -7.8230   -9.6720 C.ar      1 <0>        -0.0646
     32 C26         9.5884   -9.1638   -9.6383 C.ar      1 <0>        -0.1539
     33 C27        10.9075   -9.5558   -9.8140 C.ar      1 <0>         0.1272
     34 C28        11.8909   -8.5998  -10.0232 C.ar      1 <0>        -0.2063
     35 C29        11.5537   -7.2607  -10.0613 C.ar      1 <0>        -0.0563
     36 O3         11.2360  -10.8741   -9.7808 O.3       1 <0>        -0.3189
     37 C30        12.6134  -11.2045   -9.9693 C.3       1 <0>         0.0268
     38 C31        10.1157   -4.8084   -7.4674 C.1       1 <0>         0.2535
     39 N3         10.7892   -4.6387   -6.5685 N.1       1 <0>        -0.4011
     40 H2          0.4562   -4.3128    2.1468 H         1 <0>         0.0536
     41 H3          1.8395   -3.2545    2.5136 H         1 <0>         0.0540
     42 H4          0.2517   -2.9310    3.2501 H         1 <0>         0.0543
     43 H5         -0.6848   -2.4275    1.0100 H         1 <0>         0.0616
     44 H6          0.6985   -1.3692    1.3767 H         1 <0>         0.0618
     45 H7          2.1868   -2.8619    0.0707 H         1 <0>         0.0637
     46 H8          0.8034   -3.9202   -0.2961 H         1 <0>         0.0631
     47 H9         -0.3376   -2.0350   -1.4329 H         1 <0>         0.0727
     48 H10         1.0458   -0.9766   -1.0662 H         1 <0>         0.0729
     49 H11         3.1763   -1.2824   -2.1889 H         1 <0>         0.1266
     50 H12         4.3317   -2.0836   -4.2088 H         1 <0>         0.1339
     51 H13         1.0004   -4.6123   -5.0999 H         1 <0>         0.1261
     52 H14        -0.1428   -3.8113   -3.0729 H         1 <0>         0.1272
     53 H15         2.8816   -4.0908   -6.7222 H         1 <0>         0.4129
     54 H16         5.1009   -5.3251   -7.5526 H         1 <0>         0.1249
     55 H17         5.2456   -3.6039   -7.9824 H         1 <0>         0.1282
     56 H18         6.1513   -5.2469   -9.4049 H         1 <0>         0.4150
     57 H19         6.2759   -5.7585  -12.3327 H         1 <0>         0.1023
     58 H20         5.7764   -4.2122  -11.6075 H         1 <0>         0.0910
     59 H21         8.2084   -5.8103  -13.9522 H         1 <0>         0.1018
     60 H22         9.0933   -4.3043  -14.3032 H         1 <0>         0.0990
     61 H23         5.4944   -3.2908  -13.9367 H         1 <0>         0.0613
     62 H24         6.8683   -3.3188  -15.0681 H         1 <0>         0.0653
     63 H25         6.0468   -4.8353  -14.6278 H         1 <0>         0.0614
     64 H26         8.4836   -2.8065  -11.7532 H         1 <0>         0.0611
     65 H27         8.2906   -2.1346  -13.3902 H         1 <0>         0.0645
     66 H28         6.9270   -2.0980  -12.2467 H         1 <0>         0.0606
     67 H29         8.2304   -7.5173   -9.5353 H         1 <0>         0.1190
     68 H30         8.8212   -9.9061   -9.4749 H         1 <0>         0.1281
     69 H31        12.9185   -8.9025  -10.1602 H         1 <0>         0.1279
     70 H32        12.3182   -6.5164  -10.2285 H         1 <0>         0.1258
     71 H33        12.9432  -10.8450  -10.9440 H         1 <0>         0.0560
     72 H34        13.2101  -10.7342   -9.1876 H         1 <0>         0.0557
     73 H35        12.7377  -12.2863   -9.9200 H         1 <0>         0.1002
@<TRIPOS>BOND
     1    1    2 1
     2    1   40 1
     3    1   41 1
     4    1   42 1
     5    2    3 1
     6    2   43 1
     7    2   44 1
     8    3    4 1
     9    3   45 1
    10    3   46 1
    11    4    5 1
    12    4   47 1
    13    4   48 1
    14    5   10 ar
    15    5    6 ar
    16    6    7 ar
    17    6   49 1
    18    7    8 ar
    19    7   50 1
    20    8    9 ar
    21    8   11 1
    22    9   10 ar
    23    9   51 1
    24   10   52 1
    25   11   12 am
    26   11   53 1
    27   12   13 2
    28   12   14 1
    29   14   15 1
    30   14   54 1
    31   14   55 1
    32   15   16 1
    33   16   22 1
    34   16   17 2
    35   17   18 1
    36   17   38 1
    37   18   19 1
    38   18   20 1
    39   18   30 1
    40   20   26 1
    41   20   21 2
    42   21   22 1
    43   21   23 1
    44   22   56 1
    45   23   24 1
    46   23   57 1
    47   23   58 1
    48   24   25 1
    49   24   28 1
    50   24   29 1
    51   25   26 1
    52   25   59 1
    53   25   60 1
    54   26   27 2
    55   28   61 1
    56   28   62 1
    57   28   63 1
    58   29   64 1
    59   29   65 1
    60   29   66 1
    61   30   35 ar
    62   30   31 ar
    63   31   32 ar
    64   31   67 1
    65   32   33 ar
    66   32   68 1
    67   33   34 ar
    68   33   36 1
    69   34   35 ar
    70   34   69 1
    71   35   70 1
    72   36   37 1
    73   37   71 1
    74   37   72 1
    75   37   73 1
    76   38   39 3
@<TRIPOS>MOLECULE
ZINC26188495
   39    41     0     0     0
SMALL
USER_CHARGES
2,6-dibromo-4-[(2-ethyl-5,7-dimethyl-imidazo[5,4-b]pyridin-3-yl)methyl]phenol
@<TRIPOS>ATOM
      1 C1          3.7502    5.7488   -1.0503 C.3       1 <0>        -0.1464
      2 C2          2.8721    4.6681   -1.6842 C.3       1 <0>        -0.0545
      3 C3          3.7389    3.5289   -2.1553 C.2       1 <0>         0.3004
      4 N1          4.2718    3.4377   -3.3387 N.2       1 <0>        -0.4918
      5 C4          4.9883    2.2888   -3.4253 C.ar      1 <0>        -0.0046
      6 C5          5.7496    1.6953   -4.4370 C.ar      1 <0>         0.0084
      7 C6          6.3593    0.4847   -4.1693 C.ar      1 <0>        -0.1924
      8 C7          6.2012   -0.0995   -2.9222 C.ar      1 <0>         0.1605
      9 N2          5.4799    0.4757   -1.9825 N.ar      1 <0>        -0.4786
     10 C8          4.8787    1.6375   -2.1839 C.ar      1 <0>         0.2540
     11 N3          4.0782    2.4451   -1.4050 N.pl3     1 <0>        -0.4618
     12 C9          3.6721    2.1873   -0.0213 C.3       1 <0>         0.1758
     13 C10         2.3782    1.4147   -0.0131 C.ar      1 <0>        -0.2636
     14 C11         1.1717    2.0897    0.0021 C.ar      1 <0>        -0.0091
     15 C12        -0.0167    1.3836    0.0096 C.ar      1 <0>        -0.2212
     16 C13         0.0021   -0.0041    0.0020 C.ar      1 <0>         0.3142
     17 C14         1.2146   -0.6789   -0.0132 C.ar      1 <0>        -0.2208
     18 C15         2.4000    0.0323   -0.0207 C.ar      1 <0>         0.0033
     19 Br1         1.2454   -2.5696   -0.0230 Br        1 <0>        -0.0853
     20 O1         -1.1650   -0.7010    0.0099 O.3       1 <0>        -0.6586
     21 Br2        -1.6666    2.3076    0.0225 Br        1 <0>        -0.0853
     22 C16         6.8689   -1.4197   -2.6357 C.3       1 <0>        -0.1023
     23 C17         5.9005    2.3576   -5.7823 C.3       1 <0>        -0.1067
     24 H1          3.1175    6.5803   -0.7065 H         1 <0>         0.0698
     25 H2          4.4702    6.1195   -1.7947 H         1 <0>         0.0627
     26 H3          4.2942    5.3236   -0.1940 H         1 <0>         0.0548
     27 H4          2.1521    4.2974   -0.9398 H         1 <0>         0.0915
     28 H5          2.3281    5.0933   -2.5405 H         1 <0>         0.1019
     29 H6          6.9553   -0.0030   -4.9264 H         1 <0>         0.1369
     30 H7          4.4523    1.6014    0.4867 H         1 <0>         0.0930
     31 H8          3.5315    3.1436    0.5038 H         1 <0>         0.0905
     32 H9          1.1576    3.1696    0.0080 H         1 <0>         0.1071
     33 H10         3.3439   -0.4923   -0.0329 H         1 <0>         0.1114
     34 H11         6.6376   -1.7319   -1.6066 H         1 <0>         0.0775
     35 H12         7.9576   -1.3125   -2.7504 H         1 <0>         0.0760
     36 H13         6.4989   -2.1784   -3.3410 H         1 <0>         0.0781
     37 H14         6.5332    1.7327   -6.4297 H         1 <0>         0.0661
     38 H15         6.3688    3.3447   -5.6545 H         1 <0>         0.0739
     39 H16         4.9097    2.4788   -6.2445 H         1 <0>         0.0753
@<TRIPOS>BOND
     1    1    2 1
     2    1   24 1
     3    1   25 1
     4    1   26 1
     5    2    3 1
     6    2   27 1
     7    2   28 1
     8    3   11 1
     9    3    4 2
    10    4    5 1
    11    5   10 ar
    12    5    6 ar
    13    6    7 ar
    14    6   23 1
    15    7    8 ar
    16    7   29 1
    17    8    9 ar
    18    8   22 1
    19    9   10 ar
    20   10   11 1
    21   11   12 1
    22   12   13 1
    23   12   30 1
    24   12   31 1
    25   13   18 ar
    26   13   14 ar
    27   14   15 ar
    28   14   32 1
    29   15   16 ar
    30   15   21 1
    31   16   17 ar
    32   16   20 1
    33   17   18 ar
    34   17   19 1
    35   18   33 1
    36   22   34 1
    37   22   35 1
    38   22   36 1
    39   23   37 1
    40   23   38 1
    41   23   39 1
@<TRIPOS>MOLECULE
ZINC40285815
   27    29     0     0     0
SMALL
USER_CHARGES

@<TRIPOS>ATOM
      1 C1          1.2100   -0.7931   -0.0190 C.ar      1 <0>        -0.0939
      2 C2          2.4290   -0.1416   -0.0044 C.ar      1 <0>        -0.0827
      3 C3          2.4741    1.2393    0.0564 C.ar      1 <0>        -0.0976
      4 C4          1.2996    1.9679    0.1026 C.ar      1 <0>        -0.0844
      5 C5          0.0810    1.3158    0.0880 C.ar      1 <0>        -0.1007
      6 C6          0.0361   -0.0645    0.0272 C.ar      1 <0>        -0.0542
      7 C7         -1.2927   -0.7751    0.0108 C.3       1 <0>         0.0570
      8 H1         -2.0926   -0.0537    0.1776 H         1 <0>         0.1160
      9 C8         -1.4890   -1.4425   -1.3261 C.ar      1 <0>        -0.1448
     10 C9         -0.6787   -2.5073   -1.6895 C.ar      1 <0>        -0.0895
     11 C10        -0.8471   -3.1271   -2.9082 C.ar      1 <0>        -0.1203
     12 C11        -1.8396   -2.6795   -3.7810 C.ar      1 <0>         0.1097
     13 C12        -2.6573   -1.6019   -3.4094 C.ar      1 <0>        -0.0419
     14 C13        -2.4777   -0.9932   -2.1776 C.ar      1 <0>        -0.0531
     15 O1         -3.5106   -1.3985   -4.4390 O.3       1 <0>        -0.2747
     16 C14        -3.2360   -2.3012   -5.3959 C.2       1 <0>         0.5155
     17 O2         -3.8878   -2.4007   -6.5761 O.3       1 <0>        -0.6436
     18 N1         -2.2475   -3.0680   -5.0205 N.2       1 <0>        -0.6097
     19 Br1        -1.3275   -2.1327    1.4323 Br        1 <0>        -0.1480
     20 I1          4.3215    2.2272    0.0792 I         1 <0>        -0.0503
     21 H2          1.1747   -1.8713   -0.0710 H         1 <0>         0.1379
     22 H3          3.3461   -0.7109   -0.0402 H         1 <0>         0.1305
     23 H4          1.3346    3.0463    0.1504 H         1 <0>         0.1299
     24 H5         -0.8363    1.8848    0.1241 H         1 <0>         0.1331
     25 H6          0.0894   -2.8526   -1.0133 H         1 <0>         0.1203
     26 H7         -0.2133   -3.9559   -3.1871 H         1 <0>         0.1219
     27 H8         -3.1078   -0.1659   -1.8861 H         1 <0>         0.1176
@<TRIPOS>BOND
     1    1    6 ar
     2    1    2 ar
     3    1   21 1
     4    2    3 ar
     5    2   22 1
     6    3    4 ar
     7    3   20 1
     8    4    5 ar
     9    4   23 1
    10    5    6 ar
    11    5   24 1
    12    6    7 1
    13    7    8 1
    14    7    9 1
    15    7   19 1
    16    9   14 ar
    17    9   10 ar
    18   10   11 ar
    19   10   25 1
    20   11   12 ar
    21   11   26 1
    22   12   18 1
    23   12   13 ar
    24   13   14 ar
    25   13   15 1
    26   14   27 1
    27   15   16 1
    28   16   17 1
    29   16   18 2
@<TRIPOS>MOLECULE
ZINC49061035
   26    27     0     0     0
SMALL
USER_CHARGES

@<TRIPOS>ATOM
      1 C1          0.2007    1.7175    0.1820 C.ar      1 <0>        -0.1873
      2 C2          1.4426    2.3106    0.0458 C.ar      1 <0>        -0.0499
      3 C3          2.5790    1.5291   -0.0272 C.ar      1 <0>        -0.2302
      4 C4          2.4741    0.1457    0.0366 C.ar      1 <0>         0.3187
      5 C5          1.2248   -0.4477    0.1739 C.ar      1 <0>        -0.1400
      6 C6          0.0918    0.3406    0.2460 C.ar      1 <0>        -0.0607
      7 Cl1         1.0876   -2.1764    0.2543 Cl        1 <0>        -0.0387
      8 N1          3.6221   -0.6479   -0.0375 N.2       1 <0>        -1.1258
      9 S1          4.0640   -1.5872    1.2528 S.o2      1 <0>         2.6391
     10 O1          4.1416   -0.7220    2.3773 O.2       1 <0>        -1.0035
     11 O2          3.2223   -2.7319    1.2290 O.2       1 <0>        -0.9818
     12 C7          5.7015   -2.1597    0.9438 C.2       1 <0>        -0.6444
     13 C8          6.4842   -2.9610    1.7078 C.2       1 <0>        -0.0310
     14 C9          7.7519   -3.2838    1.2597 C.2       1 <0>        -0.1633
     15 C10         8.1742   -2.7896    0.0703 C.2       1 <0>        -0.1782
     16 S2          6.7576   -1.8414   -0.4599 S.3       1 <0>         0.2206
     17 Br1         5.8520   -3.6265    3.3610 Br        1 <0>        -0.0334
     18 C11         3.9315    2.1768   -0.1766 C.3       1 <0>         0.5249
     19 F1          3.7807    3.5670   -0.2178 F         1 <0>        -0.1991
     20 F2          4.7386    1.8273    0.9113 F         1 <0>        -0.1719
     21 F3          4.5306    1.7374   -1.3620 F         1 <0>        -0.1737
     22 H1         -0.6857    2.3314    0.2429 H         1 <0>         0.1235
     23 H2          1.5238    3.3864   -0.0038 H         1 <0>         0.1257
     24 H3         -0.8795   -0.1194    0.3527 H         1 <0>         0.1224
     25 H4          8.3959   -3.9199    1.8488 H         1 <0>         0.1430
     26 H5          9.1207   -2.9351   -0.4291 H         1 <0>         0.1950
@<TRIPOS>BOND
     1    1    6 ar
     2    1    2 ar
     3    1   22 1
     4    2    3 ar
     5    2   23 1
     6    3    4 ar
     7    3   18 1
     8    4    5 ar
     9    4    8 1
    10    5    6 ar
    11    5    7 1
    12    6   24 1
    13    8    9 1
    14    9   10 2
    15    9   11 2
    16    9   12 1
    17   12   16 1
    18   12   13 2
    19   13   14 1
    20   13   17 1
    21   14   15 2
    22   14   25 1
    23   15   16 1
    24   15   26 1
    25   18   19 1
    26   18   20 1
    27   18   21 1
@<TRIPOS>MOLECULE
ZINC59249400
   47    50     0     0     0
SMALL
USER_CHARGES

@<TRIPOS>ATOM
      1 C1          1.9504    0.7229   -0.8730 C.3       1 <0>        -0.1080
      2 C2          1.0504   -0.4013   -0.4290 C.ar      1 <0>        -0.0797
      3 C3         -0.0108   -0.7919   -1.2248 C.ar      1 <0>        -0.1162
      4 C4         -0.8389   -1.8231   -0.8208 C.ar      1 <0>        -0.0787
      5 C5         -0.6081   -2.4662    0.3795 C.ar      1 <0>        -0.0811
      6 C6          0.4570   -2.0766    1.1806 C.ar      1 <0>         0.1610
      7 C7          1.2899   -1.0443    0.7697 C.ar      1 <0>        -0.1000
      8 N1          0.6938   -2.7268    2.3985 N.am      1 <0>        -0.5089
      9 C8          0.3356   -2.1254    3.5533 C.2       1 <0>         0.5580
     10 O1         -0.1902   -1.0275    3.5536 O.2       1 <0>        -0.5019
     11 C9          0.6016   -2.8423    4.8129 C.2       1 <0>        -0.2522
     12 C10         0.2631   -2.2933    6.0485 C.2       1 <0>         0.0914
     13 C11         0.3723   -3.0668    7.2131 C.2       1 <0>         0.0243
     14 C12         1.1062   -2.7454    8.3511 C.2       1 <0>        -0.1416
     15 C13         0.9335   -3.7895    9.2567 C.2       1 <0>        -0.2011
     16 C14         0.1194   -4.7147    8.6835 C.2       1 <0>         0.0231
     17 N2         -0.2339   -4.2872    7.4460 N.pl3     1 <0>        -0.3490
     18 C15        -1.0701   -4.9692    6.5526 C.ar      1 <0>         0.1346
     19 C16        -2.1920   -4.3386    6.0308 C.ar      1 <0>        -0.1123
     20 C17        -3.0148   -5.0131    5.1503 C.ar      1 <0>        -0.1045
     21 C18        -2.7223   -6.3164    4.7882 C.ar      1 <0>        -0.0293
     22 C19        -1.6052   -6.9472    5.3072 C.ar      1 <0>        -0.0985
     23 C20        -0.7755   -6.2748    6.1829 C.ar      1 <0>        -0.0608
     24 Cl1        -3.7589   -7.1617    3.6816 Cl        1 <0>        -0.0687
     25 C21         1.2389   -4.1610    4.7083 C.2       1 <0>         0.4902
     26 O2          1.5166   -4.8835    5.8151 O.3       1 <0>        -0.5716
     27 N3          1.5346   -4.6255    3.5058 N.2       1 <0>        -0.5931
     28 C22         1.2676   -3.9390    2.3987 C.2       1 <0>         0.5423
     29 S1          1.6853   -4.6372    0.8924 S.2       1 <0>        -0.6548
     30 C23        -1.9946   -2.2453   -1.6909 C.3       1 <0>        -0.1078
     31 H1          2.7727    0.3185   -1.4633 H         1 <0>         0.0695
     32 H2          1.3802    1.4271   -1.4789 H         1 <0>         0.0644
     33 H3          2.3492    1.2362    0.0019 H         1 <0>         0.0631
     34 H4         -0.1936   -0.2904   -2.1636 H         1 <0>         0.1206
     35 H5         -1.2556   -3.2710    0.6948 H         1 <0>         0.1182
     36 H6          2.1215   -0.7417    1.3887 H         1 <0>         0.1160
     37 H7         -0.0834   -1.2721    6.1090 H         1 <0>         0.1492
     38 H8          1.6981   -1.8549    8.5031 H         1 <0>         0.1409
     39 H9          1.3703   -3.8528   10.2424 H         1 <0>         0.1388
     40 H10        -0.1983   -5.6397    9.1415 H         1 <0>         0.1609
     41 H11        -2.4210   -3.3218    6.3136 H         1 <0>         0.1328
     42 H12        -3.8874   -4.5232    4.7442 H         1 <0>         0.1378
     43 H13        -1.3793   -7.9644    5.0233 H         1 <0>         0.1404
     44 H14         0.0990   -6.7658    6.5836 H         1 <0>         0.1452
     45 H15        -1.6655   -3.0230   -2.3801 H         1 <0>         0.0709
     46 H16        -2.7988   -2.6315   -1.0646 H         1 <0>         0.0630
     47 H17        -2.3555   -1.3868   -2.2574 H         1 <0>         0.0635
@<TRIPOS>BOND
     1    1    2 1
     2    1   31 1
     3    1   32 1
     4    1   33 1
     5    2    7 ar
     6    2    3 ar
     7    3    4 ar
     8    3   34 1
     9    4    5 ar
    10    4   30 1
    11    5    6 ar
    12    5   35 1
    13    6    7 ar
    14    6    8 1
    15    7   36 1
    16    8   28 1
    17    8    9 am
    18    9   10 2
    19    9   11 1
    20   11   12 2
    21   11   25 1
    22   12   13 1
    23   12   37 1
    24   13   17 1
    25   13   14 2
    26   14   15 1
    27   14   38 1
    28   15   16 2
    29   15   39 1
    30   16   17 1
    31   16   40 1
    32   17   18 1
    33   18   23 ar
    34   18   19 ar
    35   19   20 ar
    36   19   41 1
    37   20   21 ar
    38   20   42 1
    39   21   22 ar
    40   21   24 1
    41   22   23 ar
    42   22   43 1
    43   23   44 1
    44   25   26 1
    45   25   27 2
    46   27   28 1
    47   28   29 2
    48   30   45 1
    49   30   46 1
    50   30   47 1
@<TRIPOS>MOLECULE
ZINC64452777
   48    50     0     0     0
SMALL
USER_CHARGES

@<TRIPOS>ATOM
      1 C1         -5.3136   -0.9180    4.6068 C.3       1 <0>        -0.1445
      2 C2         -4.3593    0.2447    4.8866 C.3       1 <0>        -0.0643
      3 C3         -3.0897   -0.2845    5.5023 C.ar      1 <0>        -0.1937
      4 C4         -2.9869   -0.4040    6.8761 C.ar      1 <0>        -0.0749
      5 C5         -1.8248   -0.8885    7.4436 C.ar      1 <0>        -0.1797
      6 C6         -0.7585   -1.2562    6.6328 C.ar      1 <0>         0.2751
      7 C7         -0.8652   -1.1349    5.2531 C.ar      1 <0>        -0.2635
      8 C8         -2.0322   -0.6549    4.6918 C.ar      1 <0>        -0.0620
      9 N1          0.4184   -1.7462    7.2034 N.2       1 <0>        -1.0860
     10 S1          1.6884   -2.1839    6.2350 S.o2      1 <0>         2.6085
     11 O1          1.2575   -3.3113    5.4850 O.2       1 <0>        -1.0251
     12 O2          2.1581   -0.9930    5.6183 O.2       1 <0>        -1.0261
     13 C9          2.9803   -2.7466    7.2928 C.2       1 <0>        -0.6500
     14 C10         3.1899   -4.0731    7.4769 C.2       1 <0>        -0.0199
     15 S2          4.5742   -4.0752    8.6042 S.3       1 <0>         0.0460
     16 C11         4.7798   -2.3081    8.7538 C.2       1 <0>        -0.1461
     17 C12         3.7988   -1.8421    7.9428 C.2       1 <0>        -0.0132
     18 C13         3.5998   -0.3599    7.7569 C.3       1 <0>         0.0015
     19 H1          2.6377   -0.1575    7.2865 H         1 <0>         0.1844
     20 C14         4.7329    0.2358    6.9402 C.2       1 <0>        -0.0695
     21 C15         5.2978    1.1166    7.7690 C.2       1 <0>        -0.0835
     22 N2          4.6623    1.1295    8.9616 N.2       1 <0>        -0.1701
     23 N3          3.7085    0.3458    9.0452 N.2       1 <0>        -0.1501
     24 C16         6.4834    1.9796    7.4218 C.3       1 <0>        -0.0744
     25 C17         5.1282   -0.0916    5.5233 C.3       1 <0>        -0.0863
     26 C18         5.7863   -1.5352    9.5666 C.3       1 <0>        -0.0735
     27 C19         2.4469   -5.2426    6.8841 C.3       1 <0>        -0.0935
     28 H2         -5.5481   -1.4285    5.5410 H         1 <0>         0.0521
     29 H3         -6.2319   -0.5353    4.1615 H         1 <0>         0.0441
     30 H4         -4.8407   -1.6187    3.9187 H         1 <0>         0.0515
     31 H5         -4.1248    0.7551    3.9525 H         1 <0>         0.0558
     32 H6         -4.8322    0.9454    5.5747 H         1 <0>         0.0570
     33 H7         -3.8161   -0.1176    7.5060 H         1 <0>         0.1032
     34 H8         -1.7450   -0.9812    8.5167 H         1 <0>         0.1114
     35 H9         -0.0379   -1.4195    4.6198 H         1 <0>         0.0948
     36 H10        -2.1174   -0.5645    3.6190 H         1 <0>         0.0993
     37 H11         6.1356    2.9193    6.9925 H         1 <0>         0.0714
     38 H12         7.0607    2.1838    8.3235 H         1 <0>         0.0723
     39 H13         7.1115    1.4601    6.6981 H         1 <0>         0.0693
     40 H14         4.5897    0.5607    4.8359 H         1 <0>         0.0908
     41 H15         6.2009    0.0583    5.4015 H         1 <0>         0.0701
     42 H16         4.8798   -1.1309    5.3078 H         1 <0>         0.0727
     43 H17         6.4333   -2.2311   10.1007 H         1 <0>         0.0705
     44 H18         6.3890   -0.9145    8.9037 H         1 <0>         0.0747
     45 H19         5.2645   -0.9011   10.2834 H         1 <0>         0.0903
     46 H20         2.9164   -5.5326    5.9442 H         1 <0>         0.0900
     47 H21         2.4764   -6.0817    7.5791 H         1 <0>         0.0748
     48 H22         1.4106   -4.9592    6.7003 H         1 <0>         0.1185
@<TRIPOS>BOND
     1    1    2 1
     2    1   28 1
     3    1   29 1
     4    1   30 1
     5    2    3 1
     6    2   31 1
     7    2   32 1
     8    3    8 ar
     9    3    4 ar
    10    4    5 ar
    11    4   33 1
    12    5    6 ar
    13    5   34 1
    14    6    7 ar
    15    6    9 1
    16    7    8 ar
    17    7   35 1
    18    8   36 1
    19    9   10 1
    20   10   11 2
    21   10   12 2
    22   10   13 1
    23   13   17 1
    24   13   14 2
    25   14   15 1
    26   14   27 1
    27   15   16 1
    28   16   17 2
    29   16   26 1
    30   17   18 1
    31   18   19 1
    32   18   23 1
    33   18   20 1
    34   20   21 2
    35   20   25 1
    36   21   22 1
    37   21   24 1
    38   22   23 2
    39   24   37 1
    40   24   38 1
    41   24   39 1
    42   25   40 1
    43   25   41 1
    44   25   42 1
    45   26   43 1
    46   26   44 1
    47   26   45 1
    48   27   46 1
    49   27   47 1
    50   27   48 1
@<TRIPOS>MOLECULE
ZINC13351912
   42    44     0     0     0
SMALL
USER_CHARGES
2-chloro-5-[(N'E)-N'-[[5-chloro-1-[(2-chlorophenyl)methyl]-3-methyl-pyrazol-4-yl]methylene]hydrazino]benzoic acid
@<TRIPOS>ATOM
      1 C1          5.2344   -0.2113   -0.0490 C.3       1 <0>        -0.0754
      2 C2          4.8935    1.2566   -0.0379 C.2       1 <0>         0.1046
      3 C3          3.5930    1.8047   -0.0226 C.2       1 <0>        -0.1638
      4 C4          3.7274    3.1776   -0.0225 C.2       1 <0>         0.1533
      5 N1          5.0479    3.4526   -0.0289 N.pl3     1 <0>        -0.3536
      6 N2          5.7501    2.2421   -0.0416 N.2       1 <0>        -0.2589
      7 C5          5.6451    4.7904   -0.0279 C.3       1 <0>         0.1692
      8 C6          5.8359    5.2564   -1.4483 C.ar      1 <0>        -0.1160
      9 C7          4.9276    6.1293   -2.0173 C.ar      1 <0>        -0.0833
     10 C8          5.1022    6.5565   -3.3202 C.ar      1 <0>        -0.1170
     11 C9          6.1858    6.1117   -4.0548 C.ar      1 <0>        -0.0944
     12 C10         7.0948    5.2393   -3.4869 C.ar      1 <0>        -0.1167
     13 C11         6.9231    4.8151   -2.1810 C.ar      1 <0>        -0.0108
     14 Cl1         8.0684    3.7250   -1.4644 Cl        1 <0>        -0.0473
     15 Cl2         2.4356    4.3373   -0.0126 Cl        1 <0>         0.0220
     16 C12         2.3249    1.0494   -0.0145 C.2       1 <0>         0.1041
     17 N3          1.1926    1.6828   -0.0003 N.2       1 <0>        -0.2224
     18 N4         -0.0111    0.9658    0.0074 N.pl3     1 <0>        -0.5784
     19 C13        -1.2292    1.6472    0.0168 C.ar      1 <0>         0.1929
     20 C14        -1.2479    3.0385    0.0303 C.ar      1 <0>        -0.1503
     21 C15        -2.4504    3.7182    0.0348 C.ar      1 <0>        -0.0994
     22 C16        -3.6436    3.0211    0.0367 C.ar      1 <0>        -0.0431
     23 C17        -3.6359    1.6235    0.0286 C.ar      1 <0>        -0.0704
     24 C18        -2.4204    0.9375    0.0186 C.ar      1 <0>        -0.1229
     25 C19        -4.9090    0.8754    0.0301 C.2       1 <0>         0.4861
     26 O1         -5.9656    1.4747    0.0387 O.co2     1 <0>        -0.6026
     27 Cl3        -5.1516    3.8810    0.0485 Cl        1 <0>        -0.0545
     28 H1          5.3068   -0.5597   -1.0793 H         1 <0>         0.0823
     29 H2          6.1884   -0.3666    0.4549 H         1 <0>         0.0779
     30 H3          4.4546   -0.7693    0.4693 H         1 <0>         0.0819
     31 H4          4.9857    5.4823    0.4960 H         1 <0>         0.1080
     32 H5          6.6109    4.7567    0.4763 H         1 <0>         0.1152
     33 H6          4.0812    6.4774   -1.4439 H         1 <0>         0.1335
     34 H7          4.3921    7.2382   -3.7645 H         1 <0>         0.1335
     35 H8          6.3221    6.4463   -5.0726 H         1 <0>         0.1343
     36 H9          7.9414    4.8923   -4.0606 H         1 <0>         0.1354
     37 H10         2.3396   -0.0305   -0.0204 H         1 <0>         0.1200
     38 H11         0.0021   -0.0041    0.0020 H         1 <0>         0.3894
     39 H12        -0.3187    3.5890    0.0334 H         1 <0>         0.1308
     40 H13        -2.4581    4.7982    0.0411 H         1 <0>         0.1255
     41 H14        -2.4077   -0.1424    0.0127 H         1 <0>         0.1378
     42 O2         -4.8987   -0.4717    0.0218 O.co2     1 <0>        -0.7564
@<TRIPOS>BOND
     1    1    2 1
     2    1   28 1
     3    1   29 1
     4    1   30 1
     5    2    6 2
     6    2    3 1
     7    3    4 2
     8    3   16 1
     9    4    5 1
    10    4   15 1
    11    5    6 1
    12    5    7 1
    13    7    8 1
    14    7   31 1
    15    7   32 1
    16    8   13 ar
    17    8    9 ar
    18    9   10 ar
    19    9   33 1
    20   10   11 ar
    21   10   34 1
    22   11   12 ar
    23   11   35 1
    24   12   13 ar
    25   12   36 1
    26   13   14 1
    27   16   17 2
    28   16   37 1
    29   17   18 1
    30   18   19 1
    31   18   38 1
    32   19   24 ar
    33   19   20 ar
    34   20   21 ar
    35   20   39 1
    36   21   22 ar
    37   21   40 1
    38   22   23 ar
    39   22   27 1
    40   23   24 ar
    41   23   25 1
    42   24   41 1
    43   25   26 2
    44   25   42 1
@<TRIPOS>MOLECULE
ZINC35264052
   61    65     0     0     0
SMALL
USER_CHARGES

@<TRIPOS>ATOM
      1 C1          7.0964    1.4288   -0.1021 C.3       1 <0>        -0.1498
      2 C2          7.1846   -0.0941    0.0159 C.3       1 <0>        -0.1235
      3 C3          6.3001   -0.5682    1.1708 C.3       1 <0>         0.0570
      4 O1          6.3825   -1.9906    1.2810 O.3       1 <0>        -0.3158
      5 C4          5.6520   -2.5757    2.2635 C.ar      1 <0>         0.1442
      6 C5          4.8658   -1.7936    3.1022 C.ar      1 <0>        -0.2238
      7 C6          4.1232   -2.3831    4.1002 C.ar      1 <0>        -0.0307
      8 C7          4.1601   -3.7706    4.2696 C.ar      1 <0>        -0.1717
      9 C8          4.9517   -4.5535    3.4237 C.ar      1 <0>        -0.0227
     10 C9          5.6874   -3.9563    2.4251 C.ar      1 <0>        -0.1661
     11 C10         3.3658   -4.4071    5.3387 C.2       1 <0>         0.5109
     12 C11         3.3212   -5.8684    5.4477 C.2       1 <0>        -0.4896
     13 C12         2.7170   -6.8286    4.4498 C.3       1 <0>         0.2665
     14 H1          3.2235   -6.7383    3.4888 H         1 <0>         0.0908
     15 N1          2.9190   -8.1732    5.0023 N.am      1 <0>        -0.5106
     16 C13         3.5600   -8.0451    6.1782 C.2       1 <0>         0.5126
     17 O2          3.8829   -8.9675    6.9002 O.2       1 <0>        -0.4635
     18 C14         3.8186   -6.6184    6.4592 C.2       1 <0>         0.2748
     19 O3          4.4499   -6.1370    7.5549 O.3       1 <0>        -0.6324
     20 C15         2.5203   -9.3621    4.4175 C.2       1 <0>         0.4180
     21 N2          2.6668  -10.5886    4.8627 N.2       1 <0>        -0.5317
     22 C16         2.2243  -11.6662    4.1801 C.ar      1 <0>         0.1131
     23 C17         2.3181  -13.0297    4.5442 C.ar      1 <0>        -0.0349
     24 C18         1.8132  -14.0083    3.7289 C.ar      1 <0>        -0.1108
     25 C19         1.1952  -13.7018    2.5249 C.ar      1 <0>        -0.0801
     26 C20         1.0855  -12.3790    2.1374 C.ar      1 <0>        -0.0652
     27 C21         1.5887  -11.3917    2.9475 C.ar      1 <0>        -0.1531
     28 S1          1.6679   -9.6186    2.8677 S.3       1 <0>        -0.0009
     29 C22         0.6496  -14.7994    1.6482 C.3       1 <0>        -0.1068
     30 C23         2.9810  -13.4103    5.8429 C.3       1 <0>        -0.1116
     31 C24         1.2447   -6.5503    4.2887 C.ar      1 <0>        -0.1162
     32 C25         0.3239   -7.2289    5.0647 C.ar      1 <0>        -0.0743
     33 C26        -1.0265   -6.9738    4.9172 C.ar      1 <0>        -0.1247
     34 C27        -1.4579   -6.0398    3.9935 C.ar      1 <0>        -0.0947
     35 C28        -0.5392   -5.3599    3.2170 C.ar      1 <0>        -0.1530
     36 C29         0.8143   -5.6108    3.3675 C.ar      1 <0>         0.1127
     37 F1          1.7138   -4.9432    2.6122 F         1 <0>        -0.1316
     38 O4          2.7480   -3.7187    6.1297 O.2       1 <0>        -0.4706
     39 H2          7.4366    1.8856    0.8273 H         1 <0>         0.0575
     40 H3          7.7265    1.7666   -0.9248 H         1 <0>         0.0629
     41 H4          6.0632    1.7192   -0.2927 H         1 <0>         0.0574
     42 H5          6.8444   -0.5508   -0.9135 H         1 <0>         0.0727
     43 H6          8.2178   -0.3845    0.2066 H         1 <0>         0.0729
     44 H7          6.6403   -0.1115    2.1002 H         1 <0>         0.0622
     45 H8          5.2670   -0.2778    0.9801 H         1 <0>         0.0621
     46 H9          4.8379   -0.7220    2.9707 H         1 <0>         0.1264
     47 H10         3.5133   -1.7749    4.7517 H         1 <0>         0.1316
     48 H11         4.9832   -5.6254    3.5514 H         1 <0>         0.1367
     49 H12         6.2963   -4.5606    1.7690 H         1 <0>         0.1310
     50 H13         1.8985  -15.0420    4.0300 H         1 <0>         0.1289
     51 H14         0.6075  -12.1243    1.2030 H         1 <0>         0.1285
     52 H15        -0.3874  -14.9985    1.9183 H         1 <0>         0.0709
     53 H16         0.7002  -14.4897    0.6044 H         1 <0>         0.0667
     54 H17         1.2415  -15.7040    1.7879 H         1 <0>         0.0678
     55 H18         2.2354  -13.4357    6.6377 H         1 <0>         0.0709
     56 H19         3.4387  -14.3944    5.7425 H         1 <0>         0.0637
     57 H20         3.7484  -12.6760    6.0880 H         1 <0>         0.0787
     58 H21         0.6597   -7.9589    5.7862 H         1 <0>         0.1214
     59 H22        -1.7453   -7.5048    5.5237 H         1 <0>         0.1261
     60 H23        -2.5134   -5.8418    3.8786 H         1 <0>         0.1293
     61 H24        -0.8764   -4.6306    2.4953 H         1 <0>         0.1335
@<TRIPOS>BOND
     1    1    2 1
     2    1   39 1
     3    1   40 1
     4    1   41 1
     5    2    3 1
     6    2   42 1
     7    2   43 1
     8    3    4 1
     9    3   44 1
    10    3   45 1
    11    4    5 1
    12    5   10 ar
    13    5    6 ar
    14    6    7 ar
    15    6   46 1
    16    7    8 ar
    17    7   47 1
    18    8    9 ar
    19    8   11 1
    20    9   10 ar
    21    9   48 1
    22   10   49 1
    23   11   12 1
    24   11   38 2
    25   12   18 2
    26   12   13 1
    27   13   15 1
    28   13   31 1
    29   13   14 1
    30   15   20 1
    31   15   16 am
    32   16   17 2
    33   16   18 1
    34   18   19 1
    35   20   28 1
    36   20   21 2
    37   21   22 1
    38   22   27 ar
    39   22   23 ar
    40   23   24 ar
    41   23   30 1
    42   24   25 ar
    43   24   50 1
    44   25   26 ar
    45   25   29 1
    46   26   27 ar
    47   26   51 1
    48   27   28 1
    49   29   52 1
    50   29   53 1
    51   29   54 1
    52   30   55 1
    53   30   56 1
    54   30   57 1
    55   31   36 ar
    56   31   32 ar
    57   32   33 ar
    58   32   58 1
    59   33   34 ar
    60   33   59 1
    61   34   35 ar
    62   34   60 1
    63   35   36 ar
    64   35   61 1
    65   36   37 1
@<TRIPOS>MOLECULE
ZINC36061226
   62    65     0     0     0
SMALL
USER_CHARGES

@<TRIPOS>ATOM
      1 C1          0.0376    1.7758   -0.0156 C.3       1 <0>        -0.0924
      2 C2          0.0477    0.2692    0.0178 C.2       1 <0>         0.3089
      3 C3         -1.1469   -0.4247    0.0432 C.2       1 <0>        -0.3996
      4 C4         -1.0843   -1.9354    0.0758 C.3       1 <0>         0.2660
      5 H1         -1.6258   -2.3124   -0.7919 H         1 <0>         0.0762
      6 N1          0.2668   -2.5569    0.0778 N.pl3     1 <0>        -0.5130
      7 C5          0.5611   -3.9055    0.1044 C.2       1 <0>         0.2294
      8 C6          1.8643   -4.2630    0.1007 C.2       1 <0>        -0.3043
      9 S1          2.6806   -2.6798    0.0594 S.3       1 <0>         0.1402
     10 C7          1.3243   -1.6913    0.0499 C.2       1 <0>         0.3306
     11 N2          1.2004   -0.3803    0.0171 N.2       1 <0>        -0.5931
     12 C8         -0.5053   -4.9168    0.1360 C.2       1 <0>        -0.4690
     13 C9         -0.1951   -6.2179    0.2941 C.2       1 <0>         0.5023
     14 O1          1.1029   -6.6075    0.3139 O.3       1 <0>        -0.7034
     15 N3         -1.2022   -7.1574    0.4363 N.pl3     1 <0>        -0.7541
     16 C10        -0.8649   -8.5726    0.6082 C.3       1 <0>         0.1459
     17 C11        -2.1507   -9.3909    0.7415 C.3       1 <0>        -0.1097
     18 C12        -1.8042  -10.8802    0.7958 C.3       1 <0>        -0.1421
     19 C13        -2.8798   -8.9898    2.0254 C.3       1 <0>        -0.1437
     20 C14        -1.8113   -2.4033    1.3101 C.ar      1 <0>        -0.1062
     21 C15        -3.0610   -2.9832    1.1984 C.ar      1 <0>        -0.0478
     22 C16        -3.7279   -3.4125    2.3304 C.ar      1 <0>        -0.1343
     23 C17        -3.1460   -3.2625    3.5756 C.ar      1 <0>        -0.0937
     24 C18        -1.8967   -2.6834    3.6898 C.ar      1 <0>        -0.1627
     25 C19        -1.2252   -2.2577    2.5559 C.ar      1 <0>         0.1206
     26 F1         -0.0016   -1.6957    2.6658 F         1 <0>        -0.1374
     27 C20        -2.3746    0.2486    0.0394 C.2       1 <0>         0.5373
     28 O2         -2.4032    1.4643    0.1205 O.2       1 <0>        -0.5499
     29 O3         -3.5278   -0.4497   -0.0541 O.3       1 <0>        -0.3495
     30 C21        -4.7432    0.3018   -0.0521 C.3       1 <0>         0.1113
     31 C22        -5.9155   -0.6387   -0.1628 C.ar      1 <0>        -0.0869
     32 C23        -6.4017   -0.9938   -1.4072 C.ar      1 <0>        -0.0969
     33 C24        -7.4770   -1.8565   -1.5087 C.ar      1 <0>        -0.1242
     34 C25        -8.0659   -2.3644   -0.3658 C.ar      1 <0>        -0.1146
     35 C26        -7.5792   -2.0101    0.8785 C.ar      1 <0>        -0.1234
     36 C27        -6.5012   -1.1507    0.9799 C.ar      1 <0>        -0.0921
     37 H2          1.0627    2.1456   -0.0373 H         1 <0>         0.0644
     38 H3         -0.4903    2.1159   -0.9065 H         1 <0>         0.0835
     39 H4         -0.4669    2.1555    0.8729 H         1 <0>         0.0885
     40 H5          2.2984   -5.2517    0.1188 H         1 <0>         0.2372
     41 H6         -1.5375   -4.6164    0.0326 H         1 <0>         0.0864
     42 H7         -2.1312   -6.8785    0.4222 H         1 <0>         0.3836
     43 H8         -0.3014   -8.9196   -0.2579 H         1 <0>         0.0487
     44 H9         -0.2611   -8.6956    1.5074 H         1 <0>         0.0494
     45 H10        -2.7943   -9.1987   -0.1170 H         1 <0>         0.0691
     46 H11        -1.1606  -11.0724    1.6543 H         1 <0>         0.0553
     47 H12        -2.7203  -11.4631    0.8907 H         1 <0>         0.0527
     48 H13        -1.2848  -11.1659   -0.1189 H         1 <0>         0.0550
     49 H14        -3.1267   -7.9288    1.9867 H         1 <0>         0.0562
     50 H15        -3.7959   -9.5727    2.1203 H         1 <0>         0.0488
     51 H16        -2.2363   -9.1820    2.8839 H         1 <0>         0.0538
     52 H17        -3.5166   -3.1007    0.2263 H         1 <0>         0.1255
     53 H18        -4.7045   -3.8652    2.2422 H         1 <0>         0.1216
     54 H19        -3.6684   -3.5976    4.4595 H         1 <0>         0.1238
     55 H20        -1.4425   -2.5660    4.6625 H         1 <0>         0.1263
     56 H21        -4.8185    0.8685    0.8759 H         1 <0>         0.0683
     57 H22        -4.7472    0.9885   -0.8986 H         1 <0>         0.0686
     58 H23        -5.9416   -0.5969   -2.3000 H         1 <0>         0.1222
     59 H24        -7.8573   -2.1334   -2.4809 H         1 <0>         0.1218
     60 H25        -8.9065   -3.0379   -0.4451 H         1 <0>         0.1204
     61 H26        -8.0395   -2.4066    1.7714 H         1 <0>         0.1220
     62 H27        -6.1185   -0.8768    1.9520 H         1 <0>         0.1222
@<TRIPOS>BOND
     1    1    2 1
     2    1   37 1
     3    1   38 1
     4    1   39 1
     5    2   11 1
     6    2    3 2
     7    3    4 1
     8    3   27 1
     9    4    5 1
    10    4    6 1
    11    4   20 1
    12    6   10 1
    13    6    7 1
    14    7    8 2
    15    7   12 1
    16    8    9 1
    17    8   40 1
    18    9   10 1
    19   10   11 2
    20   12   13 2
    21   12   41 1
    22   13   14 1
    23   13   15 1
    24   15   16 1
    25   15   42 1
    26   16   17 1
    27   16   43 1
    28   16   44 1
    29   17   18 1
    30   17   19 1
    31   17   45 1
    32   18   46 1
    33   18   47 1
    34   18   48 1
    35   19   49 1
    36   19   50 1
    37   19   51 1
    38   20   25 ar
    39   20   21 ar
    40   21   22 ar
    41   21   52 1
    42   22   23 ar
    43   22   53 1
    44   23   24 ar
    45   23   54 1
    46   24   25 ar
    47   24   55 1
    48   25   26 1
    49   27   28 2
    50   27   29 1
    51   29   30 1
    52   30   31 1
    53   30   56 1
    54   30   57 1
    55   31   36 ar
    56   31   32 ar
    57   32   33 ar
    58   32   58 1
    59   33   34 ar
    60   33   59 1
    61   34   35 ar
    62   34   60 1
    63   35   36 ar
    64   35   61 1
    65   36   62 1
@<TRIPOS>MOLECULE
ZINC39870216
   44    47     0     0     0
SMALL
USER_CHARGES

@<TRIPOS>ATOM
      1 C1         -0.2525    0.6469    2.5835 C.3       1 <0>         0.0392
      2 O1         -0.1731   -0.5758    1.8482 O.3       1 <0>        -0.3658
      3 C2         -1.3103   -1.0229    1.2798 C.2       1 <0>         0.5007
      4 O2         -2.3411   -0.3917    1.4052 O.2       1 <0>        -0.4735
      5 C3         -1.3037   -2.2770    0.5063 C.ar      1 <0>        -0.1669
      6 C4         -0.1219   -3.0093    0.3642 C.ar      1 <0>        -0.0502
      7 C5         -0.1226   -4.1813   -0.3599 C.ar      1 <0>        -0.1894
      8 C6         -1.2903   -4.6393   -0.9498 C.ar      1 <0>        -0.0707
      9 C7         -2.4651   -3.9275   -0.8190 C.ar      1 <0>        -0.1695
     10 C8         -2.4858   -2.7467   -0.0875 C.ar      1 <0>         0.2301
     11 N1         -3.6699   -2.0308    0.0508 N.2       1 <0>        -0.5424
     12 C9         -4.8782   -2.6742   -0.0594 C.2       1 <0>         0.4508
     13 N2         -5.1143   -3.9746   -0.1190 N.2       1 <0>        -0.7080
     14 C10        -6.3301   -4.4663   -0.2249 C.2       1 <0>         0.5161
     15 O3         -6.5352   -5.6695   -0.2787 O.2       1 <0>        -0.4891
     16 C11        -7.4337   -3.4860   -0.2746 C.2       1 <0>        -0.1757
     17 C12        -8.7801   -3.6892   -0.3801 C.2       1 <0>        -0.0122
     18 C13        -9.3033   -4.9969   -0.3112 C.2       1 <0>         0.0290
     19 C14       -10.6457   -5.3347   -0.3073 C.2       1 <0>        -0.1901
     20 C15       -10.7114   -6.7274   -0.2291 C.2       1 <0>        -0.1782
     21 C16        -9.4148   -7.1901   -0.1881 C.2       1 <0>         0.0055
     22 O4         -8.5816   -6.1355   -0.2435 O.3       1 <0>        -0.0721
     23 C17        -9.0079   -8.6054   -0.1028 C.ar      1 <0>         0.0068
     24 C18        -9.3224   -9.3600    1.0316 C.ar      1 <0>        -0.0041
     25 C19        -8.9385  -10.6841    1.1036 C.ar      1 <0>        -0.1123
     26 C20        -8.2442  -11.2647    0.0570 C.ar      1 <0>        -0.0887
     27 C21        -7.9292  -10.5248   -1.0690 C.ar      1 <0>        -0.1110
     28 C22        -8.3107   -9.2011   -1.1585 C.ar      1 <0>         0.0016
     29 Cl1        -7.9206   -8.2768   -2.5752 Cl        1 <0>        -0.0343
     30 Cl2       -10.1929   -8.6335    2.3463 Cl        1 <0>        -0.0463
     31 S1         -6.5121   -1.9585   -0.1490 S.3       1 <0>        -0.1122
     32 H1          0.7296    0.8924    2.9875 H         1 <0>         0.0925
     33 H2         -0.5840    1.4476    1.9224 H         1 <0>         0.0546
     34 H3         -0.9638    0.5333    3.4016 H         1 <0>         0.0541
     35 H4          0.7909   -2.6567    0.8211 H         1 <0>         0.1257
     36 H5          0.7915   -4.7460   -0.4688 H         1 <0>         0.1154
     37 H6         -1.2804   -5.5591   -1.5157 H         1 <0>         0.1138
     38 H7         -3.3704   -4.2909   -1.2824 H         1 <0>         0.1435
     39 H8         -9.4441   -2.8484   -0.5163 H         1 <0>         0.1566
     40 H9        -11.4815   -4.6524   -0.3549 H         1 <0>         0.1516
     41 H10       -11.6088   -7.3278   -0.2047 H         1 <0>         0.1454
     42 H11        -9.1803  -11.2681    1.9793 H         1 <0>         0.1430
     43 H12        -7.9463  -12.3010    0.1194 H         1 <0>         0.1435
     44 H13        -7.3871  -10.9852   -1.8817 H         1 <0>         0.1431
@<TRIPOS>BOND
     1    1    2 1
     2    1   32 1
     3    1   33 1
     4    1   34 1
     5    2    3 1
     6    3    4 2
     7    3    5 1
     8    5   10 ar
     9    5    6 ar
    10    6    7 ar
    11    6   35 1
    12    7    8 ar
    13    7   36 1
    14    8    9 ar
    15    8   37 1
    16    9   10 ar
    17    9   38 1
    18   10   11 1
    19   11   12 1
    20   12   31 1
    21   12   13 2
    22   13   14 1
    23   14   15 2
    24   14   16 1
    25   16   17 2
    26   16   31 1
    27   17   18 1
    28   17   39 1
    29   18   22 1
    30   18   19 2
    31   19   20 1
    32   19   40 1
    33   20   21 2
    34   20   41 1
    35   21   22 1
    36   21   23 1
    37   23   28 ar
    38   23   24 ar
    39   24   25 ar
    40   24   30 1
    41   25   26 ar
    42   25   42 1
    43   26   27 ar
    44   26   43 1
    45   27   28 ar
    46   27   44 1
    47   28   29 1
@<TRIPOS>MOLECULE
ZINC44321071
   63    67     0     0     0
SMALL
USER_CHARGES

@<TRIPOS>ATOM
      1 C1         -0.0173    1.4248    0.0099 C.3       1 <0>         0.0281
      2 O1          0.0021   -0.0041    0.0020 O.3       1 <0>        -0.3182
      3 C2          0.6058   -0.6071   -1.0557 C.ar      1 <0>         0.1287
      4 C3          1.1730    0.1624   -2.0625 C.ar      1 <0>        -0.2151
      5 C4          1.7880   -0.4467   -3.1399 C.ar      1 <0>        -0.0772
      6 C5          1.8416   -1.8240   -3.2211 C.ar      1 <0>        -0.1512
      7 C6          1.2751   -2.6035   -2.2146 C.ar      1 <0>         0.0087
      8 C7          0.6602   -1.9893   -1.1264 C.ar      1 <0>        -0.1479
      9 C8          1.3315   -4.0840   -2.2995 C.ar      1 <0>        -0.0694
     10 C9          0.7601   -4.8641   -1.2963 C.ar      1 <0>        -0.1009
     11 C10         0.8150   -6.2406   -1.3805 C.ar      1 <0>        -0.1147
     12 C11         1.4361   -6.8459   -2.4580 C.ar      1 <0>        -0.0572
     13 C12         2.0049   -6.0763   -3.4567 C.ar      1 <0>        -0.1150
     14 C13         1.9508   -4.6990   -3.3855 C.ar      1 <0>        -0.1002
     15 C14         1.4937   -8.3493   -2.5439 C.3       1 <0>        -0.0782
     16 C15         0.2618   -8.8651   -3.2904 C.3       1 <0>         0.1006
     17 H1          0.1950   -8.3764   -4.2625 H         1 <0>         0.0869
     18 C16         0.3790  -10.3550   -3.4842 C.2       1 <0>         0.4907
     19 O2         -0.3539  -11.1094   -2.8677 O.co2     1 <0>        -0.6814
     20 O3          1.2069  -10.8059   -4.2574 O.co2     1 <0>        -0.6928
     21 N1         -0.9420   -8.5673   -2.5104 N.am      1 <0>        -0.6695
     22 C17        -2.1339   -8.4505   -3.1288 C.2       1 <0>         0.6526
     23 O4         -2.2099   -8.5922   -4.3332 O.2       1 <0>        -0.5756
     24 O5         -3.2402   -8.1768   -2.4119 O.3       1 <0>        -0.3693
     25 C18        -4.4694   -8.0670   -3.1324 C.3       1 <0>         0.1085
     26 C19        -5.6062   -7.7552   -2.1570 C.3       1 <0>        -0.0078
     27 C20        -5.8652   -8.9438   -1.2640 C.ar      1 <0>        -0.0787
     28 C21        -5.0696   -9.6106   -0.3567 C.ar      1 <0>        -0.0820
     29 C22        -5.5735  -10.6939    0.3415 C.ar      1 <0>        -0.1101
     30 C23        -6.8757  -11.1099    0.1308 C.ar      1 <0>        -0.1203
     31 C24        -7.6787  -10.4485   -0.7751 C.ar      1 <0>        -0.0990
     32 C25        -7.1772   -9.3549   -1.4831 C.ar      1 <0>        -0.0642
     33 C26        -7.8075   -8.4756   -2.4987 C.ar      1 <0>        -0.0453
     34 C27        -6.8892   -7.5151   -2.9142 C.ar      1 <0>        -0.0844
     35 C28        -7.2439   -6.5774   -3.8607 C.ar      1 <0>        -0.0942
     36 C29        -8.5172   -6.5871   -4.4023 C.ar      1 <0>        -0.1157
     37 C30        -9.4366   -7.5371   -3.9955 C.ar      1 <0>        -0.1172
     38 C31        -9.0902   -8.4794   -3.0494 C.ar      1 <0>        -0.0992
     39 H2          1.0053    1.8021    0.0021 H         1 <0>         0.0545
     40 H3         -0.5445    1.7859   -0.8732 H         1 <0>         0.0547
     41 H4         -0.5275    1.7763    0.9067 H         1 <0>         0.0990
     42 H5          1.1333    1.2401   -2.0037 H         1 <0>         0.1257
     43 H6          2.2275    0.1563   -3.9208 H         1 <0>         0.1253
     44 H7          2.3222   -2.2970   -4.0647 H         1 <0>         0.1278
     45 H8          0.2230   -2.5891   -0.3419 H         1 <0>         0.1335
     46 H9          0.2755   -4.3925   -0.4541 H         1 <0>         0.1229
     47 H10         0.3725   -6.8462   -0.6034 H         1 <0>         0.1226
     48 H11         2.4890   -6.5541   -4.2957 H         1 <0>         0.1278
     49 H12         2.3917   -4.0991   -4.1679 H         1 <0>         0.1234
     50 H13         2.3947   -8.6484   -3.0795 H         1 <0>         0.0974
     51 H14         1.5120   -8.7703   -1.5387 H         1 <0>         0.0767
     52 H15        -0.8813   -8.4542   -1.5490 H         1 <0>         0.3953
     53 H16        -4.3900   -7.2649   -3.8662 H         1 <0>         0.0707
     54 H17        -4.6765   -9.0074   -3.6431 H         1 <0>         0.0701
     55 H18        -5.3556   -6.8808   -1.5564 H         1 <0>         0.1123
     56 H19        -4.0525   -9.2876   -0.1910 H         1 <0>         0.1322
     57 H20        -4.9489  -11.2154    1.0517 H         1 <0>         0.1283
     58 H21        -7.2652  -11.9560    0.6775 H         1 <0>         0.1248
     59 H22        -8.6948  -10.7769   -0.9368 H         1 <0>         0.1201
     60 H23        -6.5276   -5.8346   -4.1793 H         1 <0>         0.1267
     61 H24        -8.7936   -5.8517   -5.1433 H         1 <0>         0.1272
     62 H25       -10.4296   -7.5410   -4.4201 H         1 <0>         0.1255
     63 H26        -9.8111   -9.2194   -2.7347 H         1 <0>         0.1226
@<TRIPOS>BOND
     1    1    2 1
     2    1   39 1
     3    1   40 1
     4    1   41 1
     5    2    3 1
     6    3    8 ar
     7    3    4 ar
     8    4    5 ar
     9    4   42 1
    10    5    6 ar
    11    5   43 1
    12    6    7 ar
    13    6   44 1
    14    7    8 ar
    15    7    9 1
    16    8   45 1
    17    9   14 ar
    18    9   10 ar
    19   10   11 ar
    20   10   46 1
    21   11   12 ar
    22   11   47 1
    23   12   13 ar
    24   12   15 1
    25   13   14 ar
    26   13   48 1
    27   14   49 1
    28   15   16 1
    29   15   50 1
    30   15   51 1
    31   16   17 1
    32   16   18 1
    33   16   21 1
    34   18   19 2
    35   18   20 1
    36   21   22 am
    37   21   52 1
    38   22   23 2
    39   22   24 1
    40   24   25 1
    41   25   26 1
    42   25   53 1
    43   25   54 1
    44   26   34 1
    45   26   27 1
    46   26   55 1
    47   27   32 ar
    48   27   28 ar
    49   28   29 ar
    50   28   56 1
    51   29   30 ar
    52   29   57 1
    53   30   31 ar
    54   30   58 1
    55   31   32 ar
    56   31   59 1
    57   32   33 1
    58   33   38 ar
    59   33   34 ar
    60   34   35 ar
    61   35   36 ar
    62   35   60 1
    63   36   37 ar
    64   36   61 1
    65   37   38 ar
    66   37   62 1
    67   38   63 1
@<TRIPOS>MOLECULE
ZINC03122158
   41    45     0     0     0
SMALL
USER_CHARGES
2-(9-anthrylmethyl)indane-1,3-dione
@<TRIPOS>ATOM
      1 C1          3.3601    6.6039   -2.7294 C.ar      1 <0>        -0.1009
      2 C2          2.1950    5.8386   -2.7921 C.ar      1 <0>        -0.1565
      3 C3          2.1444    4.5743   -2.3007 C.ar      1 <0>        -0.0369
      4 C4          3.2954    4.0105   -1.7090 C.ar      1 <0>        -0.0504
      5 C5          4.5183    4.8168   -1.6379 C.ar      1 <0>        -0.0258
      6 C6          4.4979    6.1270   -2.1630 C.ar      1 <0>        -0.1336
      7 C7          5.6741    4.2887   -1.0656 C.ar      1 <0>        -0.1412
      8 C8          5.6587    2.9915   -0.5564 C.ar      1 <0>        -0.0313
      9 C9          6.8113    2.4246    0.0293 C.ar      1 <0>        -0.1297
     10 C10         6.7616    1.1582    0.5155 C.ar      1 <0>        -0.1072
     11 C11         5.5963    0.3932    0.4528 C.ar      1 <0>        -0.1545
     12 C12         4.4537    0.8771   -0.0974 C.ar      1 <0>        -0.0598
     13 C13         4.4341    2.1874   -0.6223 C.ar      1 <0>        -0.0652
     14 C14         3.2783    2.7154   -1.1946 C.ar      1 <0>         0.0252
     15 C15         2.0199    1.8890   -1.2623 C.3       1 <0>        -0.0014
     16 C16         1.1898    2.1196    0.0021 C.2       1 <0>        -0.5234
     17 C17        -0.0144    1.2081    0.0087 C.2       1 <0>         0.3989
     18 O1          0.0021   -0.0041    0.0020 O.3       1 <0>        -0.5175
     19 C18        -1.2133    2.0654    0.0183 C.ar      1 <0>        -0.1346
     20 C19        -2.5703    1.7335    0.0354 C.ar      1 <0>        -0.0928
     21 C20        -3.5272    2.7298    0.0495 C.ar      1 <0>        -0.1253
     22 C21        -3.1518    4.0618    0.0535 C.ar      1 <0>        -0.1248
     23 C22        -1.8155    4.4120    0.0431 C.ar      1 <0>        -0.0929
     24 C23        -0.8314    3.4205    0.0284 C.ar      1 <0>        -0.1339
     25 C24         0.6387    3.5256    0.0149 C.2       1 <0>         0.3932
     26 O2          1.2857    4.5509    0.0142 O.2       1 <0>        -0.4894
     27 H1          3.3537    7.6054   -3.1335 H         1 <0>         0.1100
     28 H2          1.3104    6.2634   -3.2430 H         1 <0>         0.1082
     29 H3          1.2295    4.0036   -2.3616 H         1 <0>         0.1146
     30 H4          5.3858    6.7409   -2.1270 H         1 <0>         0.1175
     31 H5          6.5759    4.8811   -1.0167 H         1 <0>         0.1205
     32 H6          7.7264    2.9948    0.0906 H         1 <0>         0.1176
     33 H7          7.6473    0.7314    0.9625 H         1 <0>         0.1110
     34 H8          5.6038   -0.6103    0.8520 H         1 <0>         0.1140
     35 H9          3.5655    0.2637   -0.1337 H         1 <0>         0.1369
     36 H10         1.4338    2.1851   -2.1448 H         1 <0>         0.0176
     37 H11         2.2843    0.8239   -1.3382 H         1 <0>         0.0643
     38 H12        -2.8717    0.6964    0.0324 H         1 <0>         0.1206
     39 H13        -4.5748    2.4675    0.0570 H         1 <0>         0.1194
     40 H14        -3.9084    4.8325    0.0645 H         1 <0>         0.1192
     41 H15        -1.5311    5.4538    0.0460 H         1 <0>         0.1202
@<TRIPOS>BOND
     1    1    6 ar
     2    1    2 ar
     3    1   27 1
     4    2    3 ar
     5    2   28 1
     6    3    4 ar
     7    3   29 1
     8    4   14 ar
     9    4    5 ar
    10    5    6 ar
    11    5    7 ar
    12    6   30 1
    13    7    8 ar
    14    7   31 1
    15    8   13 ar
    16    8    9 ar
    17    9   10 ar
    18    9   32 1
    19   10   11 ar
    20   10   33 1
    21   11   12 ar
    22   11   34 1
    23   12   13 ar
    24   12   35 1
    25   13   14 ar
    26   14   15 1
    27   15   16 1
    28   15   36 1
    29   15   37 1
    30   16   25 1
    31   16   17 2
    32   17   18 1
    33   17   19 1
    34   19   24 ar
    35   19   20 ar
    36   20   21 ar
    37   20   38 1
    38   21   22 ar
    39   21   39 1
    40   22   23 ar
    41   22   40 1
    42   23   24 ar
    43   23   41 1
    44   24   25 1
    45   25   26 2
@<TRIPOS>MOLECULE
ZINC02358701
   34    36     0     0     0
SMALL
USER_CHARGES
3-(2,4-dichlorophenyl)-4-(m-tolylmethyleneamino)-1H-1,2,4-triazole-5-thione
@<TRIPOS>ATOM
      1 C1          2.2387    1.4303    2.2811 C.3       1 <0>        -0.1098
      2 C2          1.0011    2.0623    1.6982 C.ar      1 <0>        -0.1057
      3 C3         -0.1600    1.3195    1.5732 C.ar      1 <0>        -0.0969
      4 C4         -1.2993    1.8898    1.0339 C.ar      1 <0>        -0.1157
      5 C5         -1.2882    3.2076    0.6263 C.ar      1 <0>        -0.1099
      6 C6         -0.1200    3.9634    0.7493 C.ar      1 <0>        -0.1142
      7 C7          1.0283    3.3793    1.2900 C.ar      1 <0>        -0.0808
      8 C8         -0.0986    5.3710    0.3102 C.2       1 <0>         0.1845
      9 N1         -1.1995    5.9537   -0.0548 N.2       1 <0>        -0.2521
     10 N2         -2.4055    5.2408   -0.0469 N.pl3     1 <0>        -0.3741
     11 C9         -3.0169    4.6713   -1.1479 C.2       1 <0>         0.1935
     12 N3         -4.1169    4.0903   -0.7561 N.2       1 <0>        -0.2687
     13 N4         -4.2418    4.2848    0.6262 N.2       1 <0>        -0.3706
     14 C10        -3.1719    4.9973    1.0348 C.2       1 <0>         0.3971
     15 S1         -2.8464    5.5018    2.6381 S.3       1 <0>        -0.7438
     16 C11        -2.5079    4.7115   -2.5362 C.ar      1 <0>         0.0200
     17 C12        -1.3132    5.3716   -2.8254 C.ar      1 <0>        -0.0908
     18 C13        -0.8404    5.4010   -4.1208 C.ar      1 <0>        -0.1035
     19 C14        -1.5547    4.7871   -5.1362 C.ar      1 <0>        -0.0263
     20 C15        -2.7434    4.1350   -4.8574 C.ar      1 <0>        -0.1039
     21 C16        -3.2240    4.0938   -3.5634 C.ar      1 <0>        -0.0043
     22 Cl1        -4.7149    3.2756   -3.2147 Cl        1 <0>        -0.0176
     23 Cl2        -0.9567    4.8354   -6.7653 Cl        1 <0>        -0.0654
     24 H1          2.0260    0.3841    2.5462 H         1 <0>         0.0625
     25 H2          2.5426    1.9825    3.1826 H         1 <0>         0.0678
     26 H3          3.0509    1.4629    1.5399 H         1 <0>         0.0661
     27 H4         -0.1754    0.2884    1.8942 H         1 <0>         0.1191
     28 H5         -2.2005    1.3029    0.9353 H         1 <0>         0.1202
     29 H6         -2.1795    3.6527    0.2092 H         1 <0>         0.1651
     30 H7          1.9351    3.9577    1.3878 H         1 <0>         0.1256
     31 H8          0.8503    5.9272    0.2920 H         1 <0>         0.1926
     32 H9         -0.7573    5.8549   -2.0356 H         1 <0>         0.1518
     33 H10         0.0868    5.9077   -4.3445 H         1 <0>         0.1417
     34 H11        -3.2960    3.6578   -5.6532 H         1 <0>         0.1465
@<TRIPOS>BOND
     1    1    2 1
     2    1   24 1
     3    1   25 1
     4    1   26 1
     5    2    7 ar
     6    2    3 ar
     7    3    4 ar
     8    3   27 1
     9    4    5 ar
    10    4   28 1
    11    5    6 ar
    12    5   29 1
    13    6    7 ar
    14    6    8 1
    15    7   30 1
    16    8    9 2
    17    8   31 1
    18    9   10 1
    19   10   14 1
    20   10   11 1
    21   11   12 2
    22   11   16 1
    23   12   13 1
    24   13   14 2
    25   14   15 1
    26   16   21 ar
    27   16   17 ar
    28   17   18 ar
    29   17   32 1
    30   18   19 ar
    31   18   33 1
    32   19   20 ar
    33   19   23 1
    34   20   21 ar
    35   20   34 1
    36   21   22 1
@<TRIPOS>MOLECULE
ZINC37385743
   26    27     0     0     0
SMALL
USER_CHARGES

@<TRIPOS>ATOM
      1 C1         -0.0168    1.3847    0.0097 C.ar      1 <0>        -0.1721
      2 C2          1.1705    2.0902    0.0021 C.ar      1 <0>        -0.0670
      3 C3          2.3782    1.4147   -0.0135 C.ar      1 <0>        -0.1352
      4 C4          2.3999    0.0311   -0.0216 C.ar      1 <0>        -0.0525
      5 C5          1.2157   -0.6795   -0.0137 C.ar      1 <0>        -0.2544
      6 C6          0.0021   -0.0041    0.0020 C.ar      1 <0>         0.2879
      7 N1         -1.1977   -0.7205    0.0101 N.2       1 <0>        -1.0774
      8 S1         -1.1735   -2.3763    0.0010 S.o2      1 <0>         2.5917
      9 O1         -0.6292   -2.7676   -1.2520 O.2       1 <0>        -1.0027
     10 O2         -0.6044   -2.7809    1.2386 O.2       1 <0>        -1.0027
     11 C7         -2.8488   -2.9219    0.0147 C.ar      1 <0>        -0.6023
     12 C8         -3.4964   -3.1370    1.2180 C.ar      1 <0>         0.0641
     13 C9         -4.8120   -3.5650    1.2286 C.ar      1 <0>        -0.1104
     14 C10        -5.4797   -3.7777    0.0362 C.ar      1 <0>        -0.0350
     15 C11        -4.8323   -3.5626   -1.1670 C.ar      1 <0>        -0.1105
     16 C12        -3.5185   -3.1297   -1.1779 C.ar      1 <0>         0.0640
     17 Cl1        -2.7082   -2.8529   -2.6880 Cl        1 <0>        -0.0002
     18 Br1        -7.2777   -4.3632    0.0509 Br        1 <0>        -0.0271
     19 Cl2        -2.6582   -2.8706    2.7147 Cl        1 <0>        -0.0003
     20 Cl3         3.8686    2.3047   -0.0235 Cl        1 <0>        -0.1170
     21 H1         -0.9589    1.9124    0.0260 H         1 <0>         0.1213
     22 H2          1.1565    3.1701    0.0080 H         1 <0>         0.1153
     23 H3          3.3438   -0.4936   -0.0345 H         1 <0>         0.1123
     24 H4          1.2332   -1.7593   -0.0203 H         1 <0>         0.1053
     25 H5         -5.3175   -3.7333    2.1681 H         1 <0>         0.1524
     26 H6         -5.3539   -3.7288   -2.0980 H         1 <0>         0.1524
@<TRIPOS>BOND
     1    1    6 ar
     2    1    2 ar
     3    1   21 1
     4    2    3 ar
     5    2   22 1
     6    3    4 ar
     7    3   20 1
     8    4    5 ar
     9    4   23 1
    10    5    6 ar
    11    5   24 1
    12    6    7 1
    13    7    8 1
    14    8    9 2
    15    8   10 2
    16    8   11 1
    17   11   16 ar
    18   11   12 ar
    19   12   13 ar
    20   12   19 1
    21   13   14 ar
    22   13   25 1
    23   14   15 ar
    24   14   18 1
    25   15   16 ar
    26   15   26 1
    27   16   17 1
@<TRIPOS>MOLECULE
ZINC39556925
   51    55     0     0     0
SMALL
USER_CHARGES

@<TRIPOS>ATOM
      1 C1          0.7842    1.6412   -0.6281 C.3       1 <0>        -0.1139
      2 C2          0.8262    0.1366   -0.7022 C.ar      1 <0>        -0.0885
      3 C3          1.1316   -0.4885   -1.8970 C.ar      1 <0>        -0.1144
      4 C4          1.1702   -1.8684   -1.9649 C.ar      1 <0>        -0.1158
      5 C5          0.9038   -2.6237   -0.8379 C.ar      1 <0>        -0.1041
      6 C6          0.5993   -1.9988    0.3567 C.ar      1 <0>        -0.1077
      7 C7          0.5650   -0.6184    0.4257 C.ar      1 <0>        -0.0984
      8 C8          0.3085   -2.8221    1.5850 C.3       1 <0>         0.1497
      9 N1          1.5551   -3.0687    2.3141 N.pl3     1 <0>        -0.4664
     10 C9          2.3252   -4.1768    2.1754 C.2       1 <0>         0.1278
     11 C10         3.4204   -4.0823    3.0077 C.2       1 <0>        -0.1591
     12 C11         3.2933   -2.7919    3.7132 C.ar      1 <0>        -0.0761
     13 C12         2.1125   -2.2033    3.2333 C.ar      1 <0>         0.0934
     14 C13         1.7263   -0.9578    3.7182 C.ar      1 <0>        -0.1263
     15 C14         2.5029   -0.3140    4.6572 C.ar      1 <0>        -0.1102
     16 C15         3.6712   -0.8955    5.1268 C.ar      1 <0>        -0.1477
     17 C16         4.0655   -2.1331    4.6656 C.ar      1 <0>        -0.0726
     18 C17         4.4598   -5.0338    3.1564 C.2       1 <0>         0.0026
     19 C18         4.1637   -6.3819    3.1771 C.2       1 <0>        -0.0154
     20 C19         2.8282   -6.9938    3.2020 C.2       1 <0>         0.5127
     21 O1          1.7540   -6.4187    3.2085 O.2       1 <0>        -0.5052
     22 N2          3.0412   -8.3278    3.2153 N.am      1 <0>        -0.5376
     23 C20         4.3968   -8.5497    3.2002 C.2       1 <0>         0.4939
     24 S1          5.1481  -10.1435    3.2091 S.3       1 <0>        -0.7633
     25 N3          5.0543   -7.4212    3.1724 N.2       1 <0>        -0.5444
     26 C21         2.0482   -9.3169    3.2407 C.ar      1 <0>         0.1683
     27 C22         1.8964  -10.1214    4.3619 C.ar      1 <0>        -0.0877
     28 C23         0.9168  -11.0949    4.3842 C.ar      1 <0>        -0.1120
     29 C24         0.0880  -11.2688    3.2911 C.ar      1 <0>        -0.1244
     30 C25         0.2367  -10.4690    2.1729 C.ar      1 <0>        -0.1151
     31 C26         1.2108   -9.4901    2.1470 C.ar      1 <0>        -0.1094
     32 H1          1.7727    2.0199   -0.3683 H         1 <0>         0.0711
     33 H2          0.4833    2.0443   -1.5951 H         1 <0>         0.0656
     34 H3          0.0662    1.9476    0.1326 H         1 <0>         0.0658
     35 H4          1.3397    0.1015   -2.7773 H         1 <0>         0.1216
     36 H5          1.4080   -2.3567   -2.8984 H         1 <0>         0.1241
     37 H6          0.9332   -3.7020   -0.8912 H         1 <0>         0.1225
     38 H7          0.3309   -0.1301    1.3601 H         1 <0>         0.1210
     39 H8         -0.3876   -2.2828    2.2274 H         1 <0>         0.0937
     40 H9         -0.1332   -3.7735    1.2885 H         1 <0>         0.1006
     41 H10         2.1131   -5.0050    1.5155 H         1 <0>         0.1670
     42 H11         0.8188   -0.4956    3.3588 H         1 <0>         0.1118
     43 H12         2.1990    0.6527    5.0307 H         1 <0>         0.1195
     44 H13         4.2705   -0.3798    5.8625 H         1 <0>         0.1193
     45 H14         4.9763   -2.5836    5.0316 H         1 <0>         0.1224
     46 H15         5.4837   -4.7043    3.2537 H         1 <0>         0.1335
     47 H16         2.5439   -9.9865    5.2157 H         1 <0>         0.1238
     48 H17         0.7982  -11.7210    5.2561 H         1 <0>         0.1241
     49 H18        -0.6769  -12.0311    3.3105 H         1 <0>         0.1207
     50 H19        -0.4118  -10.6074    1.3205 H         1 <0>         0.1224
     51 H20         1.3239   -8.8629    1.2751 H         1 <0>         0.1168
@<TRIPOS>BOND
     1    1    2 1
     2    1   32 1
     3    1   33 1
     4    1   34 1
     5    2    7 ar
     6    2    3 ar
     7    3    4 ar
     8    3   35 1
     9    4    5 ar
    10    4   36 1
    11    5    6 ar
    12    5   37 1
    13    6    7 ar
    14    6    8 1
    15    7   38 1
    16    8    9 1
    17    8   39 1
    18    8   40 1
    19    9   13 1
    20    9   10 1
    21   10   11 2
    22   10   41 1
    23   11   12 1
    24   11   18 1
    25   12   17 ar
    26   12   13 ar
    27   13   14 ar
    28   14   15 ar
    29   14   42 1
    30   15   16 ar
    31   15   43 1
    32   16   17 ar
    33   16   44 1
    34   17   45 1
    35   18   19 2
    36   18   46 1
    37   19   25 1
    38   19   20 1
    39   20   21 2
    40   20   22 am
    41   22   23 1
    42   22   26 1
    43   23   24 1
    44   23   25 2
    45   26   31 ar
    46   26   27 ar
    47   27   28 ar
    48   27   47 1
    49   28   29 ar
    50   28   48 1
    51   29   30 ar
    52   29   49 1
    53   30   31 ar
    54   30   50 1
    55   31   51 1
@<TRIPOS>MOLECULE
ZINC12032516
   32    34     0     0     0
SMALL
USER_CHARGES

@<TRIPOS>ATOM
      1 C1         -0.1486    1.1373    1.9757 C.ar      1 <0>        -0.0929
      2 C2         -0.0255   -0.2365    2.0921 C.ar      1 <0>        -0.1173
      3 C3          1.1813   -0.8490    1.8289 C.ar      1 <0>        -0.0919
      4 C4          2.2834   -0.0780    1.4430 C.ar      1 <0>        -0.0968
      5 C5          2.1505    1.3102    1.3277 C.ar      1 <0>        -0.0791
      6 C6          0.9368    1.9072    1.5946 C.ar      1 <0>        -0.1226
      7 C7          3.5739   -0.7227    1.1609 C.2       1 <0>         0.0726
      8 C8          3.6299   -2.0595    0.9388 C.2       1 <0>        -0.2195
      9 C9          4.8095   -2.9369    0.7939 C.2       1 <0>         0.5632
     10 O1          5.9421   -2.4983    0.8681 O.2       1 <0>        -0.4785
     11 N1          4.5777   -4.2212    0.5804 N.am      1 <0>        -0.6475
     12 C10         3.2874   -4.6984    0.5000 C.2       1 <0>         0.3962
     13 N2          2.8843   -5.9319    0.2948 N.2       1 <0>        -0.4615
     14 C11         1.5497   -6.2015    0.1558 C.ar      1 <0>         0.1236
     15 C12         0.7677   -5.4419   -0.7172 C.ar      1 <0>        -0.1325
     16 C13        -0.5768   -5.7188   -0.8533 C.ar      1 <0>        -0.0805
     17 C14        -1.1524   -6.7466   -0.1274 C.ar      1 <0>        -0.1029
     18 C15        -0.3845   -7.5046    0.7403 C.ar      1 <0>        -0.0181
     19 C16         0.9644   -7.2417    0.8824 C.ar      1 <0>        -0.0233
     20 Cl1         1.9281   -8.1967    1.9655 Cl        1 <0>        -0.0287
     21 Cl2        -1.1165   -8.7919    1.6463 Cl        1 <0>        -0.0384
     22 S1          2.2967   -3.2344    0.7505 S.3       1 <0>        -0.0113
     23 H1         -1.0978    1.6105    2.1789 H         1 <0>         0.1297
     24 H2         -0.8770   -0.8302    2.3904 H         1 <0>         0.1313
     25 H3          1.2758   -1.9210    1.9205 H         1 <0>         0.1348
     26 H4          2.9964    1.9124    1.0308 H         1 <0>         0.1340
     27 H5          0.8325    2.9785    1.5061 H         1 <0>         0.1317
     28 H6          4.4775   -0.1320    1.1304 H         1 <0>         0.1632
     29 H7          5.3233   -4.8333    0.4789 H         1 <0>         0.4259
     30 H8          1.2147   -4.6389   -1.2845 H         1 <0>         0.1430
     31 H9         -1.1820   -5.1315   -1.5280 H         1 <0>         0.1464
     32 H10        -2.2057   -6.9584   -0.2379 H         1 <0>         0.1479
@<TRIPOS>BOND
     1    1    6 ar
     2    1    2 ar
     3    1   23 1
     4    2    3 ar
     5    2   24 1
     6    3    4 ar
     7    3   25 1
     8    4    5 ar
     9    4    7 1
    10    5    6 ar
    11    5   26 1
    12    6   27 1
    13    7    8 2
    14    7   28 1
    15    8   22 1
    16    8    9 1
    17    9   10 2
    18    9   11 am
    19   11   12 1
    20   11   29 1
    21   12   13 2
    22   12   22 1
    23   13   14 1
    24   14   19 ar
    25   14   15 ar
    26   15   16 ar
    27   15   30 1
    28   16   17 ar
    29   16   31 1
    30   17   18 ar
    31   17   32 1
    32   18   19 ar
    33   18   21 1
    34   19   20 1
@<TRIPOS>MOLECULE
ZINC13778885
   32    34     0     0     0
SMALL
USER_CHARGES

@<TRIPOS>ATOM
      1 C1          1.3972   -0.8519    2.0748 C.ar      1 <0>        -0.0848
      2 C2          2.5340   -0.1144    1.8196 C.ar      1 <0>        -0.1050
      3 C3          2.4235    1.2298    1.4472 C.ar      1 <0>        -0.0635
      4 C4          1.1579    1.8160    1.3364 C.ar      1 <0>        -0.1177
      5 C5          0.0288    1.0646    1.5952 C.ar      1 <0>         0.1006
      6 C6          0.1483   -0.2668    1.9638 C.ar      1 <0>        -0.1296
      7 F1         -1.1946    1.6277    1.4897 F         1 <0>        -0.1326
      8 C7          3.6312    2.0223    1.1740 C.2       1 <0>         0.0664
      9 C8          4.8138    1.3991    0.9453 C.2       1 <0>        -0.2090
     10 C9          6.1664    1.9769    0.8072 C.2       1 <0>         0.5629
     11 O1          6.3586    3.1753    0.8946 O.2       1 <0>        -0.4754
     12 N1          7.1587    1.1317    0.5845 N.am      1 <0>        -0.6471
     13 C10         6.9202   -0.2224    0.4891 C.2       1 <0>         0.3954
     14 N2          7.7821   -1.1900    0.2737 N.2       1 <0>        -0.4584
     15 C11         7.3419   -2.4773    0.1207 C.ar      1 <0>         0.1146
     16 C12         6.2919   -2.7600   -0.7556 C.ar      1 <0>        -0.1229
     17 C13         5.8533   -4.0591   -0.9056 C.ar      1 <0>        -0.0833
     18 C14         6.4512   -5.0825   -0.1894 C.ar      1 <0>        -0.0292
     19 C15         7.4926   -4.8099    0.6812 C.ar      1 <0>        -0.0873
     20 C16         7.9451   -3.5150    0.8364 C.ar      1 <0>        -0.0135
     21 Cl1         9.2558   -3.1756    1.9229 Cl        1 <0>        -0.0357
     22 Cl2         5.8919   -6.7144   -0.3837 Cl        1 <0>        -0.0492
     23 S1          5.1563   -0.3424    0.7379 S.3       1 <0>        -0.0112
     24 H1          1.4817   -1.8907    2.3580 H         1 <0>         0.1430
     25 H2          3.5077   -0.5733    1.9073 H         1 <0>         0.1413
     26 H3          1.0644    2.8531    1.0498 H         1 <0>         0.1474
     27 H4         -0.7381   -0.8502    2.1648 H         1 <0>         0.1434
     28 H5          3.5766    3.1007    1.1554 H         1 <0>         0.1667
     29 H6          8.0632    1.4681    0.4869 H         1 <0>         0.4269
     30 H7          5.8241   -1.9629   -1.3143 H         1 <0>         0.1469
     31 H8          5.0414   -4.2786   -1.5831 H         1 <0>         0.1475
     32 H9          7.9544   -5.6125    1.2371 H         1 <0>         0.1522
@<TRIPOS>BOND
     1    1    6 ar
     2    1    2 ar
     3    1   24 1
     4    2    3 ar
     5    2   25 1
     6    3    4 ar
     7    3    8 1
     8    4    5 ar
     9    4   26 1
    10    5    6 ar
    11    5    7 1
    12    6   27 1
    13    8    9 2
    14    8   28 1
    15    9   23 1
    16    9   10 1
    17   10   11 2
    18   10   12 am
    19   12   13 1
    20   12   29 1
    21   13   14 2
    22   13   23 1
    23   14   15 1
    24   15   20 ar
    25   15   16 ar
    26   16   17 ar
    27   16   30 1
    28   17   18 ar
    29   17   31 1
    30   18   19 ar
    31   18   22 1
    32   19   20 ar
    33   19   32 1
    34   20   21 1
@<TRIPOS>MOLECULE
ZINC11862510
   39    41     0     0     0
SMALL
USER_CHARGES
(E)-3-[3-[(3-chlorophenyl)methoxy]phenyl]-2-(2-thienyl)prop-2-enoic acid
@<TRIPOS>ATOM
      1 C1          6.2811    4.0618    2.2314 C.ar      1 <0>        -0.1098
      2 C2          5.1513    3.3547    1.8635 C.ar      1 <0>        -0.0904
      3 C3          4.6964    3.4078    0.5594 C.ar      1 <0>        -0.0756
      4 C4          5.3736    4.1641   -0.3789 C.ar      1 <0>        -0.0875
      5 C5          6.5009    4.8759   -0.0102 C.ar      1 <0>        -0.0385
      6 C6          6.9562    4.8220    1.2955 C.ar      1 <0>        -0.1051
      7 Cl1         7.3484    5.8307   -1.1865 Cl        1 <0>        -0.0711
      8 C7          3.4655    2.6361    0.1589 C.3       1 <0>         0.1023
      9 O1          2.3090    3.4549    0.3433 O.3       1 <0>        -0.3138
     10 C8          1.1070    2.9054    0.0263 C.ar      1 <0>         0.1003
     11 C9          1.0443    1.6029   -0.4528 C.ar      1 <0>        -0.2032
     12 C10        -0.1749    1.0364   -0.7782 C.ar      1 <0>        -0.1033
     13 C11        -1.3386    1.7621   -0.6344 C.ar      1 <0>        -0.0424
     14 C12        -1.2879    3.0738   -0.1474 C.ar      1 <0>        -0.0001
     15 C13        -0.0525    3.6439    0.1808 C.ar      1 <0>        -0.1358
     16 C14        -2.5242    3.8497    0.0125 C.2       1 <0>        -0.0782
     17 C15        -3.6312    3.2645    0.5512 C.2       1 <0>        -0.0699
     18 C16        -4.9307    3.9597    0.5015 C.2       1 <0>        -0.0468
     19 C17        -6.0753    3.6058   -0.1664 C.2       1 <0>        -0.1536
     20 C18        -7.1807    4.4200   -0.0607 C.2       1 <0>        -0.1389
     21 C19        -7.1021    5.5492    0.6901 C.2       1 <0>        -0.2046
     22 S1         -5.4214    5.4852    1.2886 S.3       1 <0>         0.0084
     23 C20        -3.5294    1.9386    1.1825 C.2       1 <0>         0.4888
     24 O2         -2.4408    1.4197    1.3343 O.co2     1 <0>        -0.6046
     25 H1          6.6363    4.0196    3.2505 H         1 <0>         0.1350
     26 H2          4.6243    2.7604    2.5952 H         1 <0>         0.1334
     27 H3          5.0204    4.2022   -1.3988 H         1 <0>         0.1358
     28 H4          7.8390    5.3736    1.5828 H         1 <0>         0.1337
     29 H5          3.3801    1.7422    0.7767 H         1 <0>         0.0729
     30 H6          3.5428    2.3473   -0.8893 H         1 <0>         0.0704
     31 H7          1.9520    1.0299   -0.5723 H         1 <0>         0.1163
     32 H8         -0.2152    0.0233   -1.1504 H         1 <0>         0.1169
     33 H9         -2.2883    1.3179   -0.8933 H         1 <0>         0.1173
     34 H10        -0.0046    4.6566    0.5529 H         1 <0>         0.1226
     35 H11        -2.5564    4.8840   -0.2967 H         1 <0>         0.1211
     36 H12        -6.1096    2.7050   -0.7612 H         1 <0>         0.1325
     37 H13        -8.0977    4.1659   -0.5716 H         1 <0>         0.1278
     38 H14        -7.8610    6.2946    0.8766 H         1 <0>         0.1786
     39 O3         -4.6436    1.2999    1.5924 O.co2     1 <0>        -0.7407
@<TRIPOS>BOND
     1    1    6 ar
     2    1    2 ar
     3    1   25 1
     4    2    3 ar
     5    2   26 1
     6    3    4 ar
     7    3    8 1
     8    4    5 ar
     9    4   27 1
    10    5    6 ar
    11    5    7 1
    12    6   28 1
    13    8    9 1
    14    8   29 1
    15    8   30 1
    16    9   10 1
    17   10   15 ar
    18   10   11 ar
    19   11   12 ar
    20   11   31 1
    21   12   13 ar
    22   12   32 1
    23   13   14 ar
    24   13   33 1
    25   14   15 ar
    26   14   16 1
    27   15   34 1
    28   16   17 2
    29   16   35 1
    30   17   18 1
    31   17   23 1
    32   18   22 1
    33   18   19 2
    34   19   20 1
    35   19   36 1
    36   20   21 2
    37   20   37 1
    38   21   22 1
    39   21   38 1
    40   23   24 2
    41   23   39 1
@<TRIPOS>MOLECULE
ZINC20465668
   43    45     0     0     0
SMALL
USER_CHARGES
N-(3-chloro-4-methyl-phenyl)-5-(3,4-dimethylphenyl)-4-methyl-1,1-dioxo-isothiazol-3-amine
@<TRIPOS>ATOM
      1 C1         -0.3623    1.0323   -6.9604 C.3       1 <0>        -0.1105
      2 C2         -0.6057    1.2168   -5.4847 C.ar      1 <0>        -0.0962
      3 C3         -1.8859    1.0824   -4.9759 C.ar      1 <0>        -0.1149
      4 C4         -2.1156    1.2446   -3.6260 C.ar      1 <0>        -0.1088
      5 C5         -1.0532    1.5561   -2.7723 C.ar      1 <0>         0.0243
      6 C6          0.2367    1.6898   -3.2934 C.ar      1 <0>        -0.1130
      7 C7          0.4517    1.5194   -4.6451 C.ar      1 <0>        -0.0841
      8 C8          1.8417    1.6636   -5.2092 C.3       1 <0>        -0.1143
      9 C9         -1.2912    1.7366   -1.3299 C.2       1 <0>        -0.6185
     10 C10        -2.2546    2.4551   -0.7092 C.2       1 <0>         0.0000
     11 C11        -2.2029    2.4194    0.7389 C.2       1 <0>         0.3784
     12 N1         -1.2624    1.7209    1.3138 N.2       1 <0>        -0.9272
     13 S1         -0.3852    1.0647    0.0485 S.o2      1 <0>         2.5187
     14 O1         -0.5933   -0.3410    0.0600 O.2       1 <0>        -0.9863
     15 O2          0.9021    1.6664    0.0557 O.2       1 <0>        -0.9855
     16 N2         -3.1299    3.1109    1.4952 N.2       1 <0>        -0.5904
     17 C12        -3.0023    3.1571    2.8865 C.ar      1 <0>         0.1722
     18 C13        -1.7417    3.1457    3.4706 C.ar      1 <0>        -0.1352
     19 C14        -1.6184    3.1913    4.8452 C.ar      1 <0>        -0.0992
     20 C15        -2.7479    3.2483    5.6411 C.ar      1 <0>        -0.1314
     21 C16        -4.0052    3.2598    5.0630 C.ar      1 <0>        -0.0196
     22 C17        -4.1350    3.2201    3.6873 C.ar      1 <0>        -0.1344
     23 Cl1        -5.4204    3.3315    6.0660 Cl        1 <0>        -0.0950
     24 C18        -2.6093    3.2985    7.1408 C.3       1 <0>        -0.1112
     25 C19        -3.3008    3.2332   -1.4650 C.3       1 <0>        -0.1080
     26 H1         -1.3128    0.7988   -7.4624 H         1 <0>         0.0620
     27 H2          0.3466    0.2054   -7.1145 H         1 <0>         0.0673
     28 H3          0.0570    1.9580   -7.3814 H         1 <0>         0.0668
     29 H4         -2.7062    0.8454   -5.6372 H         1 <0>         0.1219
     30 H5         -3.1143    1.1353   -3.2298 H         1 <0>         0.1242
     31 H6          1.0630    1.9263   -2.6394 H         1 <0>         0.1312
     32 H7          2.5439    1.9033   -4.3971 H         1 <0>         0.0669
     33 H8          1.8529    2.4727   -5.9543 H         1 <0>         0.0681
     34 H9          2.1428    0.7201   -5.6879 H         1 <0>         0.0687
     35 H10        -0.8590    3.1008    2.8501 H         1 <0>         0.1400
     36 H11        -0.6386    3.1829    5.2994 H         1 <0>         0.1169
     37 H12        -5.1161    3.2340    3.2361 H         1 <0>         0.1235
     38 H13        -3.6079    3.3401    7.6001 H         1 <0>         0.0668
     39 H14        -2.0368    4.1933    7.4263 H         1 <0>         0.0613
     40 H15        -2.0820    2.3987    7.4906 H         1 <0>         0.0619
     41 H16        -3.9718    3.7341   -0.7516 H         1 <0>         0.0922
     42 H17        -3.8836    2.5464   -2.0964 H         1 <0>         0.0753
     43 H18        -2.8106    3.9870   -2.0986 H         1 <0>         0.0753
@<TRIPOS>BOND
     1    1    2 1
     2    1   26 1
     3    1   27 1
     4    1   28 1
     5    2    7 ar
     6    2    3 ar
     7    3    4 ar
     8    3   29 1
     9    4    5 ar
    10    4   30 1
    11    5    6 ar
    12    5    9 1
    13    6    7 ar
    14    6   31 1
    15    7    8 1
    16    8   32 1
    17    8   33 1
    18    8   34 1
    19    9   13 1
    20    9   10 2
    21   10   11 1
    22   10   25 1
    23   11   12 2
    24   11   16 1
    25   12   13 1
    26   13   14 2
    27   13   15 2
    28   16   17 1
    29   17   22 ar
    30   17   18 ar
    31   18   19 ar
    32   18   35 1
    33   19   20 ar
    34   19   36 1
    35   20   21 ar
    36   20   24 1
    37   21   22 ar
    38   21   23 1
    39   22   37 1
    40   24   38 1
    41   24   39 1
    42   24   40 1
    43   25   41 1
    44   25   42 1
    45   25   43 1
@<TRIPOS>MOLECULE
ZINC06628173
   38    40     0     0     0
SMALL
USER_CHARGES
4-(m-tolyl)-5-[3-(1,1,2,2-tetrafluoroethoxy)phenyl]-1,2,4-triazole-3-thiol
@<TRIPOS>ATOM
      1 C1         -5.1388    6.0541    3.1516 C.3       1 <0>        -0.1128
      2 C2         -4.4387    5.6597    1.8767 C.ar      1 <0>        -0.0779
      3 C3         -5.0965    4.8854    0.9384 C.ar      1 <0>        -0.1165
      4 C4         -4.4575    4.5220   -0.2326 C.ar      1 <0>        -0.1072
      5 C5         -3.1615    4.9364   -0.4712 C.ar      1 <0>        -0.1131
      6 C6         -2.4967    5.7088    0.4713 C.ar      1 <0>         0.1558
      7 C7         -3.1410    6.0722    1.6464 C.ar      1 <0>        -0.0881
      8 N1         -1.1795    6.1260    0.2347 N.pl3     1 <0>        -0.4523
      9 C8         -0.0518    5.3359    0.1837 C.2       1 <0>         0.1455
     10 N2          0.9633    6.1299   -0.0669 N.2       1 <0>        -0.2600
     11 N3          0.5569    7.3446   -0.1693 N.2       1 <0>        -0.3361
     12 C9         -0.7441    7.4032    0.0095 C.2       1 <0>         0.3874
     13 S1         -1.7420    8.8545   -0.0403 S.3       1 <0>        -0.7816
     14 C10         0.0045    3.8712    0.3750 C.ar      1 <0>         0.0562
     15 C11         1.1188    3.1503   -0.0588 C.ar      1 <0>        -0.1064
     16 C12         1.1700    1.7840    0.1257 C.ar      1 <0>        -0.0779
     17 C13         0.1157    1.1235    0.7295 C.ar      1 <0>        -0.1941
     18 C14        -0.9961    1.8319    1.1643 C.ar      1 <0>         0.1033
     19 C15        -1.0558    3.2043    0.9889 C.ar      1 <0>        -0.1245
     20 O1         -2.0269    1.1783    1.7620 O.3       1 <0>        -0.2989
     21 C16        -1.8988   -0.2373    1.9100 C.3       1 <0>         0.4034
     22 C17        -3.1468   -0.7931    2.5987 C.3       1 <0>         0.2678
     23 F1         -4.2748   -0.5056    1.8227 F         1 <0>        -0.1700
     24 F2         -3.0214   -2.1789    2.7435 F         1 <0>        -0.1753
     25 F3         -1.7602   -0.8273    0.6491 F         1 <0>        -0.1707
     26 F4         -0.7708   -0.5249    2.6860 F         1 <0>        -0.1696
     27 H1         -6.1562    5.6360    3.1556 H         1 <0>         0.0651
     28 H2         -5.1928    7.1509    3.2161 H         1 <0>         0.0729
     29 H3         -4.5784    5.6633    4.0137 H         1 <0>         0.0679
     30 H4         -6.1114    4.5643    1.1205 H         1 <0>         0.1241
     31 H5         -4.9739    3.9176   -0.9637 H         1 <0>         0.1268
     32 H6         -2.6646    4.6563   -1.3882 H         1 <0>         0.1215
     33 H7         -2.6280    6.6771    2.3794 H         1 <0>         0.1263
     34 H8          1.9418    3.6625   -0.5349 H         1 <0>         0.1416
     35 H9          2.0342    1.2280   -0.2065 H         1 <0>         0.1350
     36 H10         0.1594    0.0532    0.8671 H         1 <0>         0.1307
     37 H11        -1.9202    3.7565    1.3268 H         1 <0>         0.1399
     38 H12        -3.3333   -0.3811    3.6014 H         1 <0>         0.1618
@<TRIPOS>BOND
     1    1    2 1
     2    1   27 1
     3    1   28 1
     4    1   29 1
     5    2    7 ar
     6    2    3 ar
     7    3    4 ar
     8    3   30 1
     9    4    5 ar
    10    4   31 1
    11    5    6 ar
    12    5   32 1
    13    6    7 ar
    14    6    8 1
    15    7   33 1
    16    8   12 1
    17    8    9 1
    18    9   14 1
    19    9   10 2
    20   10   11 1
    21   11   12 2
    22   12   13 1
    23   14   19 ar
    24   14   15 ar
    25   15   16 ar
    26   15   34 1
    27   16   17 ar
    28   16   35 1
    29   17   18 ar
    30   17   36 1
    31   18   19 ar
    32   18   20 1
    33   19   37 1
    34   20   21 1
    35   21   22 1
    36   21   25 1
    37   21   26 1
    38   22   23 1
    39   22   24 1
    40   22   38 1
@<TRIPOS>MOLECULE
ZINC43554263
   32    34     0     0     0
SMALL
USER_CHARGES

@<TRIPOS>ATOM
      1 C1         -0.0187    1.5258    0.0104 C.3       1 <0>        -0.1512
      2 C2          0.0021   -0.0041    0.0020 C.3       1 <0>        -0.1198
      3 C3         -1.4333   -0.5336    0.0129 C.3       1 <0>         0.0845
      4 H1         -1.9701   -0.1109    0.8621 H         1 <0>         0.1144
      5 C4         -1.4136   -2.0361    0.1285 C.ar      1 <0>         0.3551
      6 N1         -1.0788   -2.7613   -0.9239 N.ar      1 <0>        -0.5901
      7 C5         -1.0424   -4.0817   -0.8856 C.ar      1 <0>         0.4855
      8 O1         -0.6935   -4.7895   -1.9865 O.3       1 <0>        -0.6461
      9 C6         -1.3723   -4.7494    0.3216 C.ar      1 <0>        -0.2821
     10 C7         -1.4067   -6.1785    0.6160 C.2       1 <0>        -0.0002
     11 C8         -1.7569   -6.5787    1.8607 C.2       1 <0>        -0.2171
     12 S1         -2.0644   -5.0473    2.7197 S.3       1 <0>         0.0334
     13 C9         -1.7196   -3.9118    1.4024 C.ar      1 <0>         0.1603
     14 N2         -1.7256   -2.5991    1.2794 N.ar      1 <0>        -0.5735
     15 C10        -1.0649   -7.1728   -0.4285 C.ar      1 <0>         0.0190
     16 C11        -2.0368   -8.0542   -0.9007 C.ar      1 <0>        -0.1057
     17 C12        -1.7129   -8.9775   -1.8735 C.ar      1 <0>        -0.1156
     18 C13        -0.4267   -9.0303   -2.3809 C.ar      1 <0>        -0.1227
     19 C14         0.5421   -8.1591   -1.9169 C.ar      1 <0>        -0.0982
     20 C15         0.2289   -7.2270   -0.9473 C.ar      1 <0>        -0.0267
     21 Br1         1.5524   -6.0312   -0.3195 Br        1 <0>        -0.0468
     22 Cl1        -2.2605   -0.0594   -1.5174 Cl        1 <0>        -0.1626
     23 H2          1.0039    1.9031    0.0027 H         1 <0>         0.0570
     24 H3         -0.5459    1.8868   -0.8726 H         1 <0>         0.0628
     25 H4         -0.5289    1.8773    0.9072 H         1 <0>         0.0546
     26 H5          0.5123   -0.3556   -0.8948 H         1 <0>         0.0834
     27 H6          0.5293   -0.3651    0.8851 H         1 <0>         0.0770
     28 H7         -1.8322   -7.5861    2.2426 H         1 <0>         0.1790
     29 H8         -3.0411   -8.0144   -0.5054 H         1 <0>         0.1239
     30 H9         -2.4649   -9.6608   -2.2396 H         1 <0>         0.1217
     31 H10        -0.1782   -9.7551   -3.1420 H         1 <0>         0.1225
     32 H11         1.5444   -8.2053   -2.3164 H         1 <0>         0.1245
@<TRIPOS>BOND
     1    1    2 1
     2    1   23 1
     3    1   24 1
     4    1   25 1
     5    2    3 1
     6    2   26 1
     7    2   27 1
     8    3    4 1
     9    3    5 1
    10    3   22 1
    11    5   14 ar
    12    5    6 ar
    13    6    7 ar
    14    7    8 1
    15    7    9 ar
    16    9   13 ar
    17    9   10 1
    18   10   11 2
    19   10   15 1
    20   11   12 1
    21   11   28 1
    22   12   13 1
    23   13   14 ar
    24   15   20 ar
    25   15   16 ar
    26   16   17 ar
    27   16   29 1
    28   17   18 ar
    29   17   30 1
    30   18   19 ar
    31   18   31 1
    32   19   20 ar
    33   19   32 1
    34   20   21 1
@<TRIPOS>MOLECULE
ZINC16669730
   32    34     0     0     0
SMALL
USER_CHARGES

@<TRIPOS>ATOM
      1 C1          0.2151    1.2938   -1.3278 C.ar      1 <0>        -0.0487
      2 C2          1.4075    1.9341   -1.5861 C.ar      1 <0>        -0.1562
      3 C3          2.5199    1.2040   -1.9769 C.ar      1 <0>         0.1266
      4 C4          2.4408   -0.1741   -2.1110 C.ar      1 <0>        -0.1508
      5 C5          1.2547   -0.8274   -1.8564 C.ar      1 <0>        -0.0635
      6 C6          0.1282   -0.0969   -1.4606 C.ar      1 <0>        -0.1067
      7 C7         -1.1400   -0.7866   -1.1869 C.2       1 <0>         0.0726
      8 C8         -1.1520   -2.1274   -0.9800 C.2       1 <0>        -0.2165
      9 C9         -2.3014   -3.0443   -0.8461 C.2       1 <0>         0.5632
     10 O1         -3.4478   -2.6419   -0.9163 O.2       1 <0>        -0.4773
     11 N1         -2.0282   -4.3226   -0.6469 N.am      1 <0>        -0.6473
     12 C10        -0.7229   -4.7584   -0.5705 C.2       1 <0>         0.3972
     13 N2         -0.2797   -5.9802   -0.3788 N.2       1 <0>        -0.4591
     14 C11         1.0633   -6.2075   -0.2416 C.ar      1 <0>         0.1149
     15 C12         1.8193   -5.4324    0.6404 C.ar      1 <0>        -0.1229
     16 C13         3.1721   -5.6667    0.7744 C.ar      1 <0>        -0.0834
     17 C14         3.7813   -6.6680    0.0369 C.ar      1 <0>        -0.0293
     18 C15         3.0382   -7.4405   -0.8395 C.ar      1 <0>        -0.0873
     19 C16         1.6827   -7.2200   -0.9793 C.ar      1 <0>        -0.0136
     20 Cl1         0.7509   -8.1937   -2.0736 Cl        1 <0>        -0.0358
     21 Cl2         5.4844   -6.9555    0.2115 Cl        1 <0>        -0.0493
     22 S1          0.2192   -3.2599   -0.8040 S.3       1 <0>        -0.0160
     23 F1          3.6859    1.8382   -2.2287 F         1 <0>        -0.1306
     24 H1         -0.6492    1.8632   -1.0192 H         1 <0>         0.1459
     25 H2          1.4759    3.0071   -1.4844 H         1 <0>         0.1456
     26 H3          3.3109   -0.7365   -2.4161 H         1 <0>         0.1451
     27 H4          1.1944   -1.9005   -1.9619 H         1 <0>         0.1441
     28 H5         -2.0625   -0.2263   -1.1503 H         1 <0>         0.1660
     29 H6         -2.7535   -4.9598   -0.5534 H         1 <0>         0.4266
     30 H7          1.3459   -4.6508    1.2161 H         1 <0>         0.1469
     31 H8          3.7576   -5.0675    1.4560 H         1 <0>         0.1474
     32 H9          3.5194   -8.2196   -1.4121 H         1 <0>         0.1522
@<TRIPOS>BOND
     1    1    6 ar
     2    1    2 ar
     3    1   24 1
     4    2    3 ar
     5    2   25 1
     6    3    4 ar
     7    3   23 1
     8    4    5 ar
     9    4   26 1
    10    5    6 ar
    11    5   27 1
    12    6    7 1
    13    7    8 2
    14    7   28 1
    15    8   22 1
    16    8    9 1
    17    9   10 2
    18    9   11 am
    19   11   12 1
    20   11   29 1
    21   12   13 2
    22   12   22 1
    23   13   14 1
    24   14   19 ar
    25   14   15 ar
    26   15   16 ar
    27   15   30 1
    28   16   17 ar
    29   16   31 1
    30   17   18 ar
    31   17   21 1
    32   18   19 ar
    33   18   32 1
    34   19   20 1
@<TRIPOS>MOLECULE
ZINC13508604
   66    69     0     0     0
SMALL
USER_CHARGES
(4S)-4-[(3S,5R,8R,9R,10R,13S,14R,17S)-3-hydroxy-10,13-dimethyl-2,3,4,5,6,7,8,9,11,12,14,15,16,17-tetradecahydro-1H-cyclopenta[a]phenanthren-17-yl]pentanoic acid
@<TRIPOS>ATOM
      1 C1         -3.3887   -2.4676   -3.3705 C.3       1 <0>        -0.1525
      2 C2         -1.8942   -2.4579   -3.6980 C.3       1 <0>        -0.0882
      3 H1         -1.3294   -2.7932   -2.8281 H         1 <0>         0.0726
      4 C3         -1.6238   -3.3977   -4.8748 C.3       1 <0>        -0.0930
      5 C4         -1.9382   -4.8367   -4.4609 C.3       1 <0>        -0.1570
      6 C5         -1.6719   -5.7623   -5.6199 C.2       1 <0>         0.4566
      7 O1         -1.2718   -5.3167   -6.6693 O.co2     1 <0>        -0.6429
      8 C6         -1.4632   -1.0396   -4.0694 C.3       1 <0>        -0.0747
      9 H2         -2.0493   -0.6552   -4.8957 H         1 <0>         0.0678
     10 C7          0.0514   -1.0029   -4.3973 C.3       1 <0>        -0.1207
     11 C8          0.6561    0.1633   -3.5622 C.3       1 <0>        -0.1148
     12 C9         -0.5863    0.9869   -3.2000 C.3       1 <0>        -0.0774
     13 H3         -0.9305    1.4836   -4.1384 H         1 <0>         0.0600
     14 C10        -1.6034   -0.1144   -2.8469 C.3       1 <0>        -0.0504
     15 C11        -2.9630    0.5135   -2.6495 C.3       1 <0>        -0.1117
     16 C12        -2.8591    1.5152   -1.4804 C.3       1 <0>        -0.1041
     17 C13        -1.8259    2.5868   -1.7718 C.3       1 <0>        -0.0585
     18 H4         -2.1959    3.0912   -2.6962 H         1 <0>         0.0485
     19 C14        -0.4519    2.0482   -2.1447 C.3       1 <0>        -0.0490
     20 H5          0.0727    2.9080   -2.6487 H         1 <0>         0.0479
     21 C15         0.4495    1.6559   -0.9930 C.3       1 <0>        -0.1098
     22 C16         0.0431    2.3671    0.3060 C.3       1 <0>        -0.1110
     23 C17        -0.3969    3.7678   -0.0955 C.3       1 <0>        -0.0741
     24 H6          0.3084    4.1267   -0.8627 H         1 <0>         0.0736
     25 C18        -1.7831    3.6962   -0.7378 C.3       1 <0>        -0.0420
     26 C19        -2.0593    5.0654   -1.3680 C.3       1 <0>        -0.1018
     27 C20        -2.0367    6.1479   -0.2877 C.3       1 <0>        -0.1466
     28 C21        -0.7293    6.1549    0.4952 C.3       1 <0>         0.1090
     29 H7         -0.8251    6.8521    1.3354 H         1 <0>         0.0456
     30 C22        -0.3841    4.7682    1.0463 C.3       1 <0>        -0.1038
     31 O2          0.3312    6.6077   -0.3495 O.3       1 <0>        -0.5653
     32 C23        -2.8354    3.4411    0.3411 C.3       1 <0>        -0.1466
     33 C24        -1.2231   -0.9341   -1.6168 C.3       1 <0>        -0.1438
     34 H8         -3.7265   -3.4964   -3.2454 H         1 <0>         0.0565
     35 H9         -3.5620   -1.9136   -2.4480 H         1 <0>         0.0552
     36 H10        -3.9421   -1.9999   -4.1847 H         1 <0>         0.0490
     37 H11        -2.2553   -3.1158   -5.7173 H         1 <0>         0.0555
     38 H12        -0.5759   -3.3239   -5.1654 H         1 <0>         0.0601
     39 H13        -1.3067   -5.1186   -3.6183 H         1 <0>         0.0588
     40 H14        -2.9861   -4.9105   -4.1703 H         1 <0>         0.0629
     41 H15         0.5207   -1.9445   -4.1147 H         1 <0>         0.0681
     42 H16         0.1986   -0.8121   -5.4602 H         1 <0>         0.0603
     43 H17         1.3367    0.7555   -4.1781 H         1 <0>         0.0552
     44 H18         1.1668   -0.2058   -2.6795 H         1 <0>         0.0672
     45 H19        -3.2695    1.0396   -3.5547 H         1 <0>         0.0568
     46 H20        -3.6999   -0.2536   -2.4036 H         1 <0>         0.0713
     47 H21        -3.8518    1.9760   -1.3921 H         1 <0>         0.0540
     48 H22        -2.6283    0.9882   -0.5633 H         1 <0>         0.0659
     49 H23         0.5028    0.5942   -0.8264 H         1 <0>         0.0711
     50 H24         1.4752    1.9911   -1.2357 H         1 <0>         0.0477
     51 H25        -0.7595    1.8233    0.7894 H         1 <0>         0.0648
     52 H26         0.9063    2.4267    0.9696 H         1 <0>         0.0574
     53 H27        -1.2925    5.2730   -2.1187 H         1 <0>         0.0637
     54 H28        -3.0367    5.0444   -1.8549 H         1 <0>         0.0592
     55 H29        -2.1440    7.1272   -0.7808 H         1 <0>         0.0554
     56 H30        -2.8789    6.0385    0.3918 H         1 <0>         0.0721
     57 H31         0.6284    4.8062    1.4736 H         1 <0>         0.0638
     58 H32        -1.0665    4.4924    1.8412 H         1 <0>         0.0775
     59 H33         0.2029    7.5007   -0.6976 H         1 <0>         0.3737
     60 H34        -2.6327    2.4872    0.8281 H         1 <0>         0.0583
     61 H35        -2.7993    4.2413    1.0803 H         1 <0>         0.0534
     62 H36        -3.8247    3.4129   -0.1157 H         1 <0>         0.0539
     63 H37        -1.1460   -0.2760   -0.7513 H         1 <0>         0.0539
     64 H38        -1.9877   -1.6887   -1.4325 H         1 <0>         0.0611
     65 H39        -0.2640   -1.4229   -1.7882 H         1 <0>         0.0556
     66 O3         -1.8793   -7.0818   -5.4865 O.co2     1 <0>        -0.7815
@<TRIPOS>BOND
     1    1    2 1
     2    1   34 1
     3    1   35 1
     4    1   36 1
     5    2    3 1
     6    2    4 1
     7    2    8 1
     8    4    5 1
     9    4   37 1
    10    4   38 1
    11    5    6 1
    12    5   39 1
    13    5   40 1
    14    6    7 2
    15    6   66 1
    16    8    9 1
    17    8   14 1
    18    8   10 1
    19   10   11 1
    20   10   41 1
    21   10   42 1
    22   11   12 1
    23   11   43 1
    24   11   44 1
    25   12   13 1
    26   12   19 1
    27   12   14 1
    28   14   15 1
    29   14   33 1
    30   15   16 1
    31   15   45 1
    32   15   46 1
    33   16   17 1
    34   16   47 1
    35   16   48 1
    36   17   18 1
    37   17   25 1
    38   17   19 1
    39   19   20 1
    40   19   21 1
    41   21   22 1
    42   21   49 1
    43   21   50 1
    44   22   23 1
    45   22   51 1
    46   22   52 1
    47   23   24 1
    48   23   30 1
    49   23   25 1
    50   25   26 1
    51   25   32 1
    52   26   27 1
    53   26   53 1
    54   26   54 1
    55   27   28 1
    56   27   55 1
    57   27   56 1
    58   28   29 1
    59   28   30 1
    60   28   31 1
    61   30   57 1
    62   30   58 1
    63   31   59 1
    64   32   60 1
    65   32   61 1
    66   32   62 1
    67   33   63 1
    68   33   64 1
    69   33   65 1
@<TRIPOS>MOLECULE
ZINC22345038
   35    37     0     0     0
SMALL
USER_CHARGES
(5E)-5-[(3-bromo-4-hydroxy-phenyl)methylene]-2-(m-tolylamino)thiazol-4-one
@<TRIPOS>ATOM
      1 C1         -4.0030   -1.5071   -2.3642 C.3       1 <0>        -0.1081
      2 C2         -3.7480   -0.0230   -2.3066 C.ar      1 <0>        -0.0810
      3 C3         -4.6334    0.8538   -2.9069 C.ar      1 <0>        -0.1671
      4 C4         -4.4032    2.2163   -2.8564 C.ar      1 <0>        -0.1123
      5 C5         -3.2903    2.7064   -2.2013 C.ar      1 <0>        -0.1429
      6 C6         -2.3967    1.8284   -1.6016 C.ar      1 <0>         0.1533
      7 C7         -2.6310    0.4600   -1.6542 C.ar      1 <0>        -0.1555
      8 N1         -1.2670    2.3208   -0.9415 N.2       1 <0>        -0.5675
      9 C8         -0.1525    1.5335   -0.8097 C.2       1 <0>         0.4446
     10 N2          0.0076    0.2696   -1.1688 N.2       1 <0>        -0.7115
     11 C9          1.1386   -0.3766   -0.9904 C.2       1 <0>         0.5249
     12 O1          1.2741   -1.5423   -1.3262 O.2       1 <0>        -0.5317
     13 C10         2.2398    0.3883   -0.3599 C.2       1 <0>        -0.1836
     14 C11         3.5033   -0.0003   -0.0521 C.2       1 <0>        -0.0233
     15 C12         3.8888   -1.4113   -0.1791 C.ar      1 <0>        -0.0865
     16 C13         3.0005   -2.4207    0.2131 C.ar      1 <0>         0.0161
     17 C14         3.3647   -3.7421    0.0870 C.ar      1 <0>        -0.1618
     18 C15         4.6161   -4.0759   -0.4181 C.ar      1 <0>         0.1920
     19 C16         5.5048   -3.0779   -0.8039 C.ar      1 <0>        -0.2005
     20 C17         5.1483   -1.7526   -0.6874 C.ar      1 <0>        -0.0338
     21 Br1         7.2049   -3.5414   -1.4900 Br        1 <0>        -0.0563
     22 O2          4.9722   -5.3808   -0.5349 O.3       1 <0>        -0.5016
     23 S1          1.4363    1.9679   -0.1193 S.3       1 <0>        -0.1338
     24 H1         -4.9323   -1.6981   -2.9210 H         1 <0>         0.0547
     25 H2         -4.1000   -1.9024   -1.3423 H         1 <0>         0.0613
     26 H3         -3.1629   -2.0041   -2.8714 H         1 <0>         0.0656
     27 H4         -5.5067    0.4735   -3.4159 H         1 <0>         0.1059
     28 H5         -5.0967    2.8983   -3.3258 H         1 <0>         0.1105
     29 H6         -3.1134    3.7709   -2.1583 H         1 <0>         0.1135
     30 H7         -1.9405   -0.2251   -1.1851 H         1 <0>         0.1503
     31 H8          4.2384    0.7419    0.2925 H         1 <0>         0.1353
     32 H9          2.0297   -2.1627    0.6099 H         1 <0>         0.1371
     33 H10         2.6786   -4.5210    0.3851 H         1 <0>         0.1360
     34 H11         5.8388   -0.9781   -0.9872 H         1 <0>         0.1335
     35 H12         5.9619   -5.6472   -0.9343 H         1 <0>         0.4242
@<TRIPOS>BOND
     1    1    2 1
     2    1   24 1
     3    1   25 1
     4    1   26 1
     5    2    7 ar
     6    2    3 ar
     7    3    4 ar
     8    3   27 1
     9    4    5 ar
    10    4   28 1
    11    5    6 ar
    12    5   29 1
    13    6    7 ar
    14    6    8 1
    15    7   30 1
    16    8    9 1
    17    9   23 1
    18    9   10 2
    19   10   11 1
    20   11   12 2
    21   11   13 1
    22   13   14 2
    23   13   23 1
    24   14   15 1
    25   14   31 1
    26   15   20 ar
    27   15   16 ar
    28   16   17 ar
    29   16   32 1
    30   17   18 ar
    31   17   33 1
    32   18   19 ar
    33   18   22 1
    34   19   20 ar
    35   19   21 1
    36   20   34 1
    37   22   35 1
@<TRIPOS>MOLECULE
ZINC35287777
   40    42     0     0     0
SMALL
USER_CHARGES

@<TRIPOS>ATOM
      1 C1         -0.1730    1.4874   -0.4072 C.3       1 <0>        -0.1036
      2 C2         -0.0914   -0.0150   -0.3235 C.ar      1 <0>        -0.1125
      3 C3         -1.2488   -0.7665   -0.2387 C.ar      1 <0>        -0.1307
      4 C4         -1.1740   -2.1445   -0.1620 C.ar      1 <0>        -0.0870
      5 C5          0.0583   -2.7714   -0.1706 C.ar      1 <0>        -0.0402
      6 C6          1.2152   -2.0202   -0.2563 C.ar      1 <0>        -0.0991
      7 C7          1.1402   -0.6421   -0.3373 C.ar      1 <0>        -0.1254
      8 C8          2.5584   -2.7036   -0.2652 C.3       1 <0>        -0.1099
      9 C9          0.1399   -4.2738   -0.0860 C.3       1 <0>         0.0303
     10 C10        -1.2381   -4.8397    0.1424 C.2       1 <0>        -0.4506
     11 C11        -1.7658   -4.9378    1.4463 C.2       1 <0>         0.5115
     12 O1         -1.1074   -4.5627    2.4053 O.2       1 <0>        -0.5718
     13 N1         -2.9960   -5.4451    1.6290 N.2       1 <0>        -0.5514
     14 C12        -3.7166   -5.8523    0.6070 C.2       1 <0>         0.4141
     15 N2         -3.2413   -5.7738   -0.6676 N.pl3     1 <0>        -0.6335
     16 C13        -1.9979   -5.2603   -0.9088 C.2       1 <0>         0.4631
     17 O2         -1.5257   -5.1752   -2.1722 O.3       1 <0>        -0.6893
     18 C14        -5.0659   -6.4056    0.8453 C.ar      1 <0>        -0.0281
     19 C15        -5.8421   -6.8479   -0.2277 C.ar      1 <0>        -0.0960
     20 C16        -7.1004   -7.3637    0.0016 C.ar      1 <0>        -0.1116
     21 C17        -7.5951   -7.4432    1.2918 C.ar      1 <0>        -0.1030
     22 C18        -6.8327   -7.0067    2.3598 C.ar      1 <0>        -0.1006
     23 C19        -5.5685   -6.4938    2.1454 C.ar      1 <0>        -0.0487
     24 Br1        -4.5237   -5.9052    3.6076 Br        1 <0>         0.0153
     25 H1         -0.2343    1.7904   -1.4524 H         1 <0>         0.0608
     26 H2         -1.0597    1.8333    0.1240 H         1 <0>         0.0587
     27 H3          0.7161    1.9254    0.0464 H         1 <0>         0.0582
     28 H4         -2.2113   -0.2767   -0.2320 H         1 <0>         0.1086
     29 H5         -2.0781   -2.7314   -0.0950 H         1 <0>         0.1162
     30 H6          2.0442   -0.0553   -0.4081 H         1 <0>         0.1103
     31 H7          2.8753   -2.8686   -1.2949 H         1 <0>         0.0635
     32 H8          3.2892   -2.0750    0.2436 H         1 <0>         0.0567
     33 H9          2.4821   -3.6614    0.2494 H         1 <0>         0.0690
     34 H10         0.5450   -4.6687   -1.0176 H         1 <0>         0.0693
     35 H11         0.7904   -4.5563    0.7417 H         1 <0>         0.0628
     36 H12        -3.7893   -6.0798   -1.4072 H         1 <0>         0.3933
     37 H13        -5.4580   -6.7860   -1.2352 H         1 <0>         0.1316
     38 H14        -7.7015   -7.7061   -0.8278 H         1 <0>         0.1322
     39 H15        -8.5814   -7.8477    1.4652 H         1 <0>         0.1315
     40 H16        -7.2249   -7.0713    3.3640 H         1 <0>         0.1359
@<TRIPOS>BOND
     1    1    2 1
     2    1   25 1
     3    1   26 1
     4    1   27 1
     5    2    7 ar
     6    2    3 ar
     7    3    4 ar
     8    3   28 1
     9    4    5 ar
    10    4   29 1
    11    5    6 ar
    12    5    9 1
    13    6    7 ar
    14    6    8 1
    15    7   30 1
    16    8   31 1
    17    8   32 1
    18    8   33 1
    19    9   34 1
    20    9   35 1
    21    9   10 1
    22   10   11 1
    23   10   16 2
    24   11   13 1
    25   11   12 2
    26   13   14 2
    27   14   15 1
    28   14   18 1
    29   15   16 1
    30   15   36 1
    31   16   17 1
    32   18   23 ar
    33   18   19 ar
    34   19   20 ar
    35   19   37 1
    36   20   21 ar
    37   20   38 1
    38   21   22 ar
    39   21   39 1
    40   22   23 ar
    41   22   40 1
    42   23   24 1
@<TRIPOS>MOLECULE
ZINC39887269
   43    45     0     0     0
SMALL
USER_CHARGES

@<TRIPOS>ATOM
      1 C1          0.7254   -0.4651    1.2672 C.3       1 <0>        -0.1442
      2 C2          0.0018   -0.0034    0.0006 C.3       1 <0>        -0.0548
      3 C3          0.7345   -0.5412   -1.2301 C.3       1 <0>        -0.1423
      4 C4         -1.4120   -0.5250    0.0113 C.ar      1 <0>        -0.0800
      5 C5         -1.6444   -1.8874    0.0577 C.ar      1 <0>        -0.1138
      6 C6         -2.9388   -2.3687    0.0681 C.ar      1 <0>        -0.1210
      7 C7         -4.0079   -1.4827    0.0319 C.ar      1 <0>         0.1502
      8 C8         -3.7710   -0.1148   -0.0147 C.ar      1 <0>        -0.0717
      9 C9         -2.4741    0.3600   -0.0195 C.ar      1 <0>        -0.1140
     10 N1         -5.3197   -1.9667    0.0418 N.pl3     1 <0>        -0.5701
     11 C10        -5.8424   -2.7294   -1.0967 C.3       1 <0>         0.4261
     12 H1         -5.0160   -3.0347   -1.7385 H         1 <0>         0.1141
     13 N2         -6.5485   -3.9175   -0.6138 N.am      1 <0>        -0.7433
     14 C11        -7.1774   -3.9048    0.5784 C.2       1 <0>         0.5993
     15 O1         -7.7985   -4.8828    0.9535 O.2       1 <0>        -0.5636
     16 C12        -7.1098   -2.7078    1.4199 C.2       1 <0>        -0.3149
     17 C13        -6.1393   -1.7412    1.1198 C.2       1 <0>         0.4458
     18 S1         -5.9824   -0.2815    2.0942 S.3       1 <0>        -0.7834
     19 C14        -8.0077   -2.5322    2.5215 C.1       1 <0>         0.3362
     20 N3         -8.7201   -2.3929    3.3953 N.1       1 <0>        -0.4943
     21 C15        -6.7954   -1.8664   -1.8829 C.ar      1 <0>        -0.1148
     22 C16        -6.6139   -0.4966   -1.9236 C.ar      1 <0>        -0.0739
     23 C17        -7.4876    0.2954   -2.6446 C.ar      1 <0>        -0.1106
     24 C18        -8.5439   -0.2830   -3.3256 C.ar      1 <0>        -0.0285
     25 C19        -8.7250   -1.6540   -3.2845 C.ar      1 <0>        -0.1159
     26 C20        -7.8473   -2.4455   -2.5678 C.ar      1 <0>        -0.0804
     27 Cl1        -9.6420    0.7111   -4.2308 Cl        1 <0>        -0.0787
     28 H2          1.7480   -0.0879    1.2594 H         1 <0>         0.0537
     29 H3          0.2034   -0.0820    2.1440 H         1 <0>         0.0574
     30 H4          0.7403   -1.5545    1.3004 H         1 <0>         0.0558
     31 H5         -0.0131    1.0860   -0.0326 H         1 <0>         0.0753
     32 H6          0.7494   -1.6306   -1.1969 H         1 <0>         0.0557
     33 H7          0.2190   -0.2122   -2.1324 H         1 <0>         0.0553
     34 H8          1.7571   -0.1639   -1.2379 H         1 <0>         0.0537
     35 H9         -0.8127   -2.5758    0.0855 H         1 <0>         0.1189
     36 H10        -3.1196   -3.4328    0.1040 H         1 <0>         0.1197
     37 H11        -4.6000    0.5767   -0.0433 H         1 <0>         0.1377
     38 H12        -2.2893    1.4236   -0.0515 H         1 <0>         0.1203
     39 H13        -6.5642   -4.7211   -1.1568 H         1 <0>         0.4027
     40 H14        -5.7895   -0.0451   -1.3917 H         1 <0>         0.1391
     41 H15        -7.3460    1.3656   -2.6760 H         1 <0>         0.1327
     42 H16        -9.5496   -2.1061   -3.8156 H         1 <0>         0.1320
     43 H17        -7.9858   -3.5163   -2.5395 H         1 <0>         0.1325
@<TRIPOS>BOND
     1    1    2 1
     2    1   28 1
     3    1   29 1
     4    1   30 1
     5    2    3 1
     6    2    4 1
     7    2   31 1
     8    3   32 1
     9    3   33 1
    10    3   34 1
    11    4    9 ar
    12    4    5 ar
    13    5    6 ar
    14    5   35 1
    15    6    7 ar
    16    6   36 1
    17    7    8 ar
    18    7   10 1
    19    8    9 ar
    20    8   37 1
    21    9   38 1
    22   10   17 1
    23   10   11 1
    24   11   12 1
    25   11   13 1
    26   11   21 1
    27   13   14 am
    28   13   39 1
    29   14   15 2
    30   14   16 1
    31   16   17 2
    32   16   19 1
    33   17   18 1
    34   19   20 3
    35   21   26 ar
    36   21   22 ar
    37   22   23 ar
    38   22   40 1
    39   23   24 ar
    40   23   41 1
    41   24   25 ar
    42   24   27 1
    43   25   26 ar
    44   25   42 1
    45   26   43 1
@<TRIPOS>MOLECULE
ZINC50948176
   34    35     0     0     0
SMALL
USER_CHARGES

@<TRIPOS>ATOM
      1 C1          0.1751    1.4938    1.5358 C.ar      1 <0>        -0.1290
      2 C2          1.3473    2.1795    1.2922 C.ar      1 <0>        -0.0547
      3 C3          2.4539    1.5028    0.7777 C.ar      1 <0>        -0.1224
      4 C4          2.3669    0.1351    0.5129 C.ar      1 <0>        -0.0329
      5 C5          1.1891   -0.5388    0.7610 C.ar      1 <0>        -0.1979
      6 C6          0.0954    0.1382    1.2712 C.ar      1 <0>        -0.0686
      7 C7          1.0933   -2.0154    0.4757 C.3       1 <0>         0.5111
      8 F1          1.4726   -2.7357    1.6134 F         1 <0>        -0.1783
      9 F2         -0.2243   -2.3402    0.1359 F         1 <0>        -0.1807
     10 F3          1.9428   -2.3411   -0.5871 F         1 <0>        -0.1762
     11 C8          3.7139    2.2319    0.5136 C.2       1 <0>         0.4540
     12 C9          3.6770    3.6008    0.1439 C.2       1 <0>        -0.4372
     13 C10         2.4209    4.2411   -0.1067 C.1       1 <0>         0.2960
     14 N1          1.4245    4.7491   -0.3055 N.1       1 <0>        -0.5294
     15 C11         4.8651    4.3237    0.0243 C.2       1 <0>         0.5488
     16 O1          6.0462    3.7215    0.2599 O.3       1 <0>        -0.6128
     17 N2          4.8296    5.6377   -0.3306 N.pl3     1 <0>        -0.6748
     18 C12         6.0225    6.3357   -0.5492 C.ar      1 <0>         0.1854
     19 C13         7.0915    5.7070   -1.1746 C.ar      1 <0>        -0.0798
     20 C14         8.2680    6.3974   -1.3900 C.ar      1 <0>        -0.1222
     21 C15         8.3831    7.7158   -0.9827 C.ar      1 <0>         0.0741
     22 C16         7.3181    8.3455   -0.3585 C.ar      1 <0>        -0.0526
     23 C17         6.1370    7.6595   -0.1463 C.ar      1 <0>        -0.1282
     24 Cl1         7.4654    9.9983    0.1516 Cl        1 <0>        -0.0610
     25 F4          9.5353    8.3890   -1.1937 F         1 <0>        -0.1352
     26 O2          4.7828    1.6568    0.6137 O.2       1 <0>        -0.4825
     27 H1         -0.6807    2.0154    1.9382 H         1 <0>         0.1324
     28 H2          1.4082    3.2378    1.4989 H         1 <0>         0.1375
     29 H3          3.2197   -0.3943    0.1144 H         1 <0>         0.1412
     30 H4         -0.8245   -0.3940    1.4637 H         1 <0>         0.1317
     31 H5          3.9775    6.0899   -0.4320 H         1 <0>         0.4045
     32 H6          7.0029    4.6785   -1.4920 H         1 <0>         0.1547
     33 H7          9.0992    5.9085   -1.8763 H         1 <0>         0.1442
     34 H8          5.3054    8.1515    0.3361 H         1 <0>         0.1407
@<TRIPOS>BOND
     1    1    6 ar
     2    1    2 ar
     3    1   27 1
     4    2    3 ar
     5    2   28 1
     6    3    4 ar
     7    3   11 1
     8    4    5 ar
     9    4   29 1
    10    5    6 ar
    11    5    7 1
    12    6   30 1
    13    7    8 1
    14    7    9 1
    15    7   10 1
    16   11   12 1
    17   11   26 2
    18   12   13 1
    19   12   15 2
    20   13   14 3
    21   15   16 1
    22   15   17 1
    23   17   18 1
    24   17   31 1
    25   18   23 ar
    26   18   19 ar
    27   19   20 ar
    28   19   32 1
    29   20   21 ar
    30   20   33 1
    31   21   22 ar
    32   21   25 1
    33   22   23 ar
    34   22   24 1
    35   23   34 1
@<TRIPOS>MOLECULE
ZINC59336604
   27    28     0     0     0
SMALL
USER_CHARGES

@<TRIPOS>ATOM
      1 C1          0.1684    1.0680   -0.0842 C.ar      1 <0>        -0.0932
      2 C2          1.3180    1.8309   -0.0791 C.ar      1 <0>        -0.1451
      3 C3          2.5629    1.2125    0.0577 C.ar      1 <0>         0.2226
      4 C4          2.6348   -0.1776    0.1886 C.ar      1 <0>        -0.0694
      5 C5          1.4758   -0.9287    0.1818 C.ar      1 <0>        -0.0114
      6 C6          0.2455   -0.3071    0.0456 C.ar      1 <0>        -0.1658
      7 Cl1         1.5612   -2.6550    0.3436 Cl        1 <0>        -0.0822
      8 Cl2         4.1765   -0.9573    0.3587 Cl        1 <0>        -0.0656
      9 N1          3.7060    1.9632    0.0630 N.2       1 <0>        -0.6321
     10 C7          3.7330    3.1143    0.6957 C.2       1 <0>         0.4338
     11 O1          2.6298    3.5571    1.3420 O.3       1 <0>        -0.6938
     12 C8          4.9600    3.9200    0.7015 C.2       1 <0>        -0.0141
     13 C9          5.4294    4.4761   -0.4780 C.2       1 <0>         0.0183
     14 C10         4.6554    4.3965   -1.6500 C.2       1 <0>        -0.1788
     15 C11         4.9866    4.7786   -2.9503 C.2       1 <0>        -0.1234
     16 C12         4.0131    4.5752   -3.8941 C.2       1 <0>        -0.1724
     17 C13         2.8259    4.0316   -3.5135 C.2       1 <0>        -0.2304
     18 S1          2.9985    3.7739   -1.8625 S.3       1 <0>         0.3645
     19 Cl3         1.4478    3.6788   -4.5086 Cl        1 <0>        -0.0057
     20 C14         5.6720    4.1315    1.9258 C.1       1 <0>         0.2783
     21 N2          6.2368    4.2993    2.8971 N.1       1 <0>        -0.4345
     22 H1         -0.7947    1.5461   -0.1854 H         1 <0>         0.1198
     23 H2          1.2554    2.9043   -0.1810 H         1 <0>         0.1386
     24 H3         -0.6580   -0.8988    0.0412 H         1 <0>         0.1230
     25 H4          6.3894    4.9705   -0.4974 H         1 <0>         0.1475
     26 H5          5.9468    5.2068   -3.1973 H         1 <0>         0.1432
     27 H6          4.1866    4.8433   -4.9258 H         1 <0>         0.1284
@<TRIPOS>BOND
     1    1    6 ar
     2    1    2 ar
     3    1   22 1
     4    2    3 ar
     5    2   23 1
     6    3    4 ar
     7    3    9 1
     8    4    5 ar
     9    4    8 1
    10    5    6 ar
    11    5    7 1
    12    6   24 1
    13    9   10 2
    14   10   11 1
    15   10   12 1
    16   12   13 2
    17   12   20 1
    18   13   14 1
    19   13   25 1
    20   14   18 1
    21   14   15 2
    22   15   16 1
    23   15   26 1
    24   16   17 2
    25   16   27 1
    26   17   18 1
    27   17   19 1
    28   20   21 3
@<TRIPOS>MOLECULE
ZINC04995577
   35    38     0     0     0
SMALL
USER_CHARGES

@<TRIPOS>ATOM
      1 C1          0.0394    1.1616   -2.1352 C.ar      1 <0>        -0.1455
      2 C2          1.2321    1.8495   -2.3061 C.ar      1 <0>        -0.1046
      3 C3          2.4411    1.2035   -2.1678 C.ar      1 <0>        -0.1282
      4 C4          2.4724   -0.1514   -1.8536 C.ar      1 <0>         0.0884
      5 C5          1.2646   -0.8457   -1.6806 C.ar      1 <0>        -0.0832
      6 C6          0.0498   -0.1805   -1.8237 C.ar      1 <0>        -0.0709
      7 C7          1.6390   -2.2367   -1.3613 C.2       1 <0>        -0.1591
      8 C8          3.0061   -2.2794   -1.3647 C.2       1 <0>         0.0911
      9 N1          3.5006   -1.0501   -1.6549 N.pl3     1 <0>        -0.5838
     10 H1          4.4442   -0.8333   -1.7148 H         1 <0>         0.4177
     11 C9          0.7288   -3.3492   -1.0937 C.2       1 <0>         0.0352
     12 C10         1.2277   -4.5845   -0.8118 C.2       1 <0>        -0.2097
     13 C11         0.5190   -5.8464   -0.5177 C.2       1 <0>         0.5342
     14 O1         -0.7009   -5.9096   -0.4975 O.2       1 <0>        -0.5400
     15 N2          1.2712   -6.8988   -0.2792 N.2       1 <0>        -0.7111
     16 C12         2.5933   -6.8444   -0.2984 C.2       1 <0>         0.4510
     17 S1          2.9253   -5.1364   -0.7014 S.3       1 <0>        -0.1405
     18 N3          3.4915   -7.8565   -0.0698 N.2       1 <0>        -0.5640
     19 C13         3.0456   -9.1783    0.0280 C.ar      1 <0>         0.1912
     20 C14         1.8472   -9.5543   -0.5650 C.ar      1 <0>        -0.1542
     21 C15         1.4096  -10.8604   -0.4666 C.ar      1 <0>        -0.0923
     22 C16         2.1629  -11.7941    0.2216 C.ar      1 <0>        -0.1707
     23 C17         3.3564  -11.4239    0.8133 C.ar      1 <0>        -0.0810
     24 C18         3.8032  -10.1199    0.7139 C.ar      1 <0>        -0.1139
     25 Br1         5.4397   -9.6160    1.5163 Br        1 <0>        -0.0682
     26 H2         -0.9012    1.6813   -2.2424 H         1 <0>         0.1224
     27 H3          1.2125    2.9014   -2.5501 H         1 <0>         0.1232
     28 H4          3.3637    1.7483   -2.3037 H         1 <0>         0.1186
     29 H5         -0.8799   -0.7140   -1.6911 H         1 <0>         0.1250
     30 H6          3.6014   -3.1583   -1.1659 H         1 <0>         0.1851
     31 H7         -0.3393   -3.1912   -1.1196 H         1 <0>         0.1446
     32 H8          1.2581   -8.8259   -1.1023 H         1 <0>         0.1447
     33 H9          0.4776  -11.1530   -0.9272 H         1 <0>         0.1136
     34 H10         1.8179  -12.8147    0.2972 H         1 <0>         0.1152
     35 H11         3.9423  -12.1555    1.3500 H         1 <0>         0.1196
@<TRIPOS>BOND
     1    1    6 ar
     2    1    2 ar
     3    1   26 1
     4    2    3 ar
     5    2   27 1
     6    3    4 ar
     7    3   28 1
     8    4    9 1
     9    4    5 ar
    10    5    6 ar
    11    5    7 1
    12    6   29 1
    13    7    8 2
    14    7   11 1
    15    8    9 1
    16    8   30 1
    17    9   10 1
    18   11   12 2
    19   11   31 1
    20   12   17 1
    21   12   13 1
    22   13   14 2
    23   13   15 1
    24   15   16 2
    25   16   17 1
    26   16   18 1
    27   18   19 1
    28   19   24 ar
    29   19   20 ar
    30   20   21 ar
    31   20   32 1
    32   21   22 ar
    33   21   33 1
    34   22   23 ar
    35   22   34 1
    36   23   24 ar
    37   23   35 1
    38   24   25 1
@<TRIPOS>MOLECULE
ZINC19861014
   28    30     0     0     0
SMALL
USER_CHARGES
4-[(5-bromo-2-thienyl)methyleneamino]-5-(2,4-dichlorophenyl)-1,2,4-triazole-3-thiol
@<TRIPOS>ATOM
      1 C1         -2.2045    4.3611    0.0356 C.ar      1 <0>        -0.0991
      2 C2         -1.0805    3.5612    0.0320 C.ar      1 <0>        -0.1024
      3 C3         -1.2157    2.1721    0.0199 C.ar      1 <0>         0.0358
      4 C4         -2.4906    1.6002    0.0236 C.ar      1 <0>        -0.0082
      5 C5         -3.6073    2.4115    0.0335 C.ar      1 <0>        -0.1000
      6 C6         -3.4654    3.7890    0.0397 C.ar      1 <0>        -0.0316
      7 Cl1        -4.8745    4.8029    0.0522 Cl        1 <0>        -0.0663
      8 Cl2        -2.6697   -0.1265    0.0164 Cl        1 <0>        -0.0177
      9 C7         -0.0157    1.3099    0.0092 C.2       1 <0>         0.1358
     10 N1          0.0021   -0.0041    0.0020 N.2       1 <0>        -0.2279
     11 N2          1.2154   -0.4271   -0.0118 N.2       1 <0>        -0.3250
     12 C8          2.0490    0.5897   -0.0143 C.2       1 <0>         0.3897
     13 N3          1.2953    1.7315   -0.0010 N.pl3     1 <0>        -0.3674
     14 N4          1.7600    3.0532    0.0017 N.2       1 <0>        -0.2310
     15 C9          1.9865    3.6609    1.1298 C.2       1 <0>         0.2213
     16 C10         1.7557    2.9630    2.3972 C.2       1 <0>        -0.2100
     17 C11         1.9320    3.4225    3.6916 C.2       1 <0>        -0.1059
     18 C12         1.6447    2.5715    4.7320 C.2       1 <0>        -0.1318
     19 C13         1.1998    1.3149    4.4603 C.2       1 <0>        -0.1947
     20 S1          1.1661    1.3009    2.6757 S.3       1 <0>         0.2490
     21 Br1         0.7291   -0.0634    5.6665 Br        1 <0>         0.0327
     22 S2          3.8086    0.4989   -0.0311 S.3       1 <0>        -0.7724
     23 H1         -2.1007    5.4361    0.0401 H         1 <0>         0.1406
     24 H2         -0.0977    4.0091    0.0340 H         1 <0>         0.1433
     25 H3         -4.5935    1.9712    0.0368 H         1 <0>         0.1460
     26 H4          2.3513    4.6987    1.1319 H         1 <0>         0.2107
     27 H5          2.2864    4.4254    3.8791 H         1 <0>         0.1467
     28 H6          1.7705    2.8970    5.7541 H         1 <0>         0.1399
@<TRIPOS>BOND
     1    1    6 ar
     2    1    2 ar
     3    1   23 1
     4    2    3 ar
     5    2   24 1
     6    3    4 ar
     7    3    9 1
     8    4    5 ar
     9    4    8 1
    10    5    6 ar
    11    5   25 1
    12    6    7 1
    13    9   13 1
    14    9   10 2
    15   10   11 1
    16   11   12 2
    17   12   13 1
    18   12   22 1
    19   13   14 1
    20   14   15 2
    21   15   16 1
    22   15   26 1
    23   16   20 1
    24   16   17 2
    25   17   18 1
    26   17   27 1
    27   18   19 2
    28   18   28 1
    29   19   20 1
    30   19   21 1
@<TRIPOS>MOLECULE
ZINC17130524
   43    46     0     0     0
SMALL
USER_CHARGES
4-(3-chlorophenyl)azo-3,5-diphenyl-pyrazole-1-carbodithioic acid
@<TRIPOS>ATOM
      1 C1          6.3759    0.9633   -0.4784 C.ar      1 <0>        -0.1054
      2 C2          5.6416    0.1272   -1.3003 C.ar      1 <0>        -0.1326
      3 C3          4.2679    0.0706   -1.1813 C.ar      1 <0>        -0.0425
      4 C4          3.6204    0.8577   -0.2302 C.ar      1 <0>        -0.0156
      5 C5          4.3652    1.7020    0.5920 C.ar      1 <0>        -0.0808
      6 C6          5.7389    1.7463    0.4674 C.ar      1 <0>        -0.1298
      7 C7          2.1450    0.8018   -0.0978 C.2       1 <0>         0.1458
      8 C8          1.3210   -0.4111   -0.0843 C.2       1 <0>        -0.0749
      9 C9          0.0013    0.0135    0.0576 C.2       1 <0>         0.2440
     10 N1          0.0184    1.3773    0.1254 N.pl3     1 <0>        -0.2957
     11 N2          1.3372    1.8292    0.0281 N.2       1 <0>        -0.2316
     12 C10        -1.0673    2.1646    0.2593 C.2       1 <0>         0.4241
     13 S1         -2.6338    1.4746    0.2301 S.2       1 <0>        -0.5662
     14 S2         -0.8744    3.9039    0.4645 S.3       1 <0>        -0.6183
     15 C11        -1.1931   -0.8505    0.1221 C.ar      1 <0>        -0.0288
     16 C12        -1.3996   -1.6812    1.2263 C.ar      1 <0>        -0.0740
     17 C13        -2.5211   -2.4821    1.2822 C.ar      1 <0>        -0.1374
     18 C14        -3.4348   -2.4725    0.2430 C.ar      1 <0>        -0.0962
     19 C15        -3.2338   -1.6565   -0.8564 C.ar      1 <0>        -0.1381
     20 C16        -2.1199   -0.8460   -0.9234 C.ar      1 <0>        -0.0003
     21 N3          1.7577   -1.6944   -0.1887 N.2       1 <0>        -0.1356
     22 N4          3.0217   -1.9418   -0.2599 N.2       1 <0>        -0.2521
     23 C17         3.4608   -3.2322   -0.3649 C.ar      1 <0>         0.0850
     24 C18         2.5432   -4.2863   -0.3896 C.ar      1 <0>        -0.1106
     25 C19         2.9925   -5.5854   -0.4996 C.ar      1 <0>        -0.1060
     26 C20         4.3491   -5.8480   -0.5762 C.ar      1 <0>        -0.1034
     27 C21         5.2649   -4.8096   -0.5476 C.ar      1 <0>        -0.0351
     28 C22         4.8290   -3.5039   -0.4422 C.ar      1 <0>        -0.0664
     29 Cl1         6.9644   -5.1504   -0.6439 Cl        1 <0>        -0.0684
     30 H1          7.4507    1.0046   -0.5754 H         1 <0>         0.1206
     31 H2          6.1444   -0.4821   -2.0368 H         1 <0>         0.1230
     32 H3          3.6957   -0.5825   -1.8235 H         1 <0>         0.1210
     33 H4          3.8685    2.3173    1.3276 H         1 <0>         0.1252
     34 H5          6.3173    2.3969    1.1066 H         1 <0>         0.1234
     35 H6         -0.6850   -1.6930    2.0360 H         1 <0>         0.1134
     36 H7         -2.6842   -3.1218    2.1370 H         1 <0>         0.1181
     37 H8         -4.3093   -3.1046    0.2904 H         1 <0>         0.1155
     38 H9         -3.9511   -1.6540   -1.6638 H         1 <0>         0.1187
     39 H10        -1.9646   -0.2091   -1.7817 H         1 <0>         0.1134
     40 H11         1.4843   -4.0836   -0.3260 H         1 <0>         0.1428
     41 H12         2.2841   -6.4002   -0.5221 H         1 <0>         0.1344
     42 H13         4.6953   -6.8677   -0.6584 H         1 <0>         0.1338
     43 H14         5.5439   -2.6947   -0.4192 H         1 <0>         0.1435
@<TRIPOS>BOND
     1    1    6 ar
     2    1    2 ar
     3    1   30 1
     4    2    3 ar
     5    2   31 1
     6    3    4 ar
     7    3   32 1
     8    4    5 ar
     9    4    7 1
    10    5    6 ar
    11    5   33 1
    12    6   34 1
    13    7   11 2
    14    7    8 1
    15    8    9 2
    16    8   21 1
    17    9   10 1
    18    9   15 1
    19   10   11 1
    20   10   12 1
    21   12   13 2
    22   12   14 1
    23   15   20 ar
    24   15   16 ar
    25   16   17 ar
    26   16   35 1
    27   17   18 ar
    28   17   36 1
    29   18   19 ar
    30   18   37 1
    31   19   20 ar
    32   19   38 1
    33   20   39 1
    34   21   22 2
    35   22   23 1
    36   23   28 ar
    37   23   24 ar
    38   24   25 ar
    39   24   40 1
    40   25   26 ar
    41   25   41 1
    42   26   27 ar
    43   26   42 1
    44   27   28 ar
    45   27   29 1
    46   28   43 1
@<TRIPOS>MOLECULE
ZINC01885895
   32    34     0     0     0
SMALL
USER_CHARGES

@<TRIPOS>ATOM
      1 C1          0.1887    1.1798   -0.8804 C.ar      1 <0>        -0.1008
      2 C2          1.1075    1.8080   -1.7013 C.ar      1 <0>        -0.1618
      3 C3          2.0047    1.0592   -2.4403 C.ar      1 <0>        -0.1004
      4 C4          1.9859   -0.3206   -2.3604 C.ar      1 <0>        -0.0564
      5 C5          1.0636   -0.9545   -1.5362 C.ar      1 <0>         0.1727
      6 C6          0.1641   -0.1984   -0.7958 C.ar      1 <0>        -0.1491
      7 N1          1.0413   -2.3503   -1.4527 N.2       1 <0>        -0.5549
      8 C7         -0.0836   -2.9922   -1.0036 C.2       1 <0>         0.4394
      9 N2         -1.3174   -2.5215   -0.9134 N.2       1 <0>        -0.7063
     10 C8         -2.3174   -3.2456   -0.4615 C.2       1 <0>         0.5302
     11 O1         -3.4513   -2.8002   -0.3835 O.2       1 <0>        -0.5311
     12 C9         -1.9925   -4.6320   -0.0527 C.2       1 <0>        -0.1689
     13 C10        -2.7996   -5.6039    0.4441 C.2       1 <0>        -0.0276
     14 C11        -2.2802   -6.9634    0.6333 C.ar      1 <0>        -0.0565
     15 C12        -1.0905   -7.3566    0.0081 C.ar      1 <0>        -0.0752
     16 C13        -0.6088   -8.6350    0.1909 C.ar      1 <0>        -0.0325
     17 C14        -1.2971   -9.5344    0.9911 C.ar      1 <0>        -0.0714
     18 C15        -2.4726   -9.1598    1.6142 C.ar      1 <0>        -0.1109
     19 C16        -2.9702   -7.8765    1.4472 C.ar      1 <0>         0.1537
     20 O2         -4.1215   -7.5060    2.0633 O.3       1 <0>        -0.4756
     21 Br1        -3.4003  -10.3977    2.7019 Br        1 <0>        -0.0289
     22 Cl1         0.8662   -9.1216   -0.5846 Cl        1 <0>        -0.0520
     23 S1         -0.2396   -4.6681   -0.4061 S.3       1 <0>        -0.1108
     24 Cl2         3.1122   -1.2605   -3.2888 Cl        1 <0>        -0.0813
     25 H1         -0.5077    1.7681   -0.3013 H         1 <0>         0.1146
     26 H2          1.1240    2.8859   -1.7657 H         1 <0>         0.1170
     27 H3          2.7207    1.5528   -3.0806 H         1 <0>         0.1217
     28 H4         -0.5536   -0.6878   -0.1541 H         1 <0>         0.1412
     29 H5         -3.8239   -5.3766    0.7001 H         1 <0>         0.1550
     30 H6         -0.5517   -6.6595   -0.6165 H         1 <0>         0.1640
     31 H7         -0.9124  -10.5343    1.1280 H         1 <0>         0.1466
     32 H8         -4.9183   -7.6731    1.5414 H         1 <0>         0.3965
@<TRIPOS>BOND
     1    1    6 ar
     2    1    2 ar
     3    1   25 1
     4    2    3 ar
     5    2   26 1
     6    3    4 ar
     7    3   27 1
     8    4    5 ar
     9    4   24 1
    10    5    6 ar
    11    5    7 1
    12    6   28 1
    13    7    8 1
    14    8   23 1
    15    8    9 2
    16    9   10 1
    17   10   11 2
    18   10   12 1
    19   12   13 2
    20   12   23 1
    21   13   14 1
    22   13   29 1
    23   14   19 ar
    24   14   15 ar
    25   15   16 ar
    26   15   30 1
    27   16   17 ar
    28   16   22 1
    29   17   18 ar
    30   17   31 1
    31   18   19 ar
    32   18   21 1
    33   19   20 1
    34   20   32 1
@<TRIPOS>MOLECULE
ZINC41013141
   43    45     0     0     0
SMALL
USER_CHARGES

@<TRIPOS>ATOM
      1 C1          0.8533   -0.5720    0.0424 C.3       1 <0>        -0.1479
      2 C2         -0.0188    0.6742    0.2076 C.3       1 <0>        -0.0414
      3 C3         -1.4696    0.2957    0.0565 C.2       1 <0>        -0.1651
      4 C4         -2.2539    0.2724   -1.0660 C.2       1 <0>         0.0937
      5 N1         -3.5185   -0.0980   -0.9672 N.2       1 <0>        -0.4980
      6 C5         -4.0421   -0.4481    0.2013 C.2       1 <0>         0.2773
      7 S1         -2.6393   -0.2542    1.2921 S.3       1 <0>         0.0673
      8 N2         -5.3056   -0.8514    0.4902 N.2       1 <0>        -0.4479
      9 C6         -6.2037   -0.9360   -0.4665 C.2       1 <0>         0.4440
     10 C7         -7.5720   -1.3728   -0.1536 C.2       1 <0>        -0.0645
     11 C8         -8.5119   -1.4612   -1.1548 C.2       1 <0>         0.0408
     12 C9         -9.9154   -1.7290   -0.8218 C.ar      1 <0>        -0.1070
     13 C10       -10.4582   -1.2515    0.3779 C.ar      1 <0>        -0.0856
     14 C11       -11.7777   -1.5078    0.6827 C.ar      1 <0>        -0.1200
     15 C12       -12.5659   -2.2352   -0.1927 C.ar      1 <0>        -0.0887
     16 C13       -12.0377   -2.7109   -1.3808 C.ar      1 <0>        -0.1245
     17 C14       -10.7220   -2.4587   -1.7045 C.ar      1 <0>        -0.0777
     18 C15        -7.9269   -1.7062    1.1931 C.1       1 <0>         0.2592
     19 N3         -8.2084   -1.9707    2.2614 N.1       1 <0>        -0.3858
     20 O1         -5.8685   -0.6211   -1.7383 O.3       1 <0>        -0.4472
     21 C16        -1.6887    0.6602   -2.3814 C.ar      1 <0>         0.0048
     22 C17        -0.9026    1.8057   -2.4945 C.ar      1 <0>        -0.1027
     23 C18        -0.3792    2.1620   -3.7206 C.ar      1 <0>        -0.0887
     24 C19        -0.6341    1.3845   -4.8370 C.ar      1 <0>        -0.0881
     25 C20        -1.4146    0.2463   -4.7302 C.ar      1 <0>        -0.0901
     26 C21        -1.9372   -0.1226   -3.5076 C.ar      1 <0>        -0.0815
     27 Br1         0.0859    1.8793   -6.5141 Br        1 <0>        -0.0497
     28 H1          1.9047   -0.2854    0.0647 H         1 <0>         0.0674
     29 H2          0.6493   -1.2686    0.8556 H         1 <0>         0.0579
     30 H3          0.6271   -1.0500   -0.9107 H         1 <0>         0.0588
     31 H4          0.1438    1.1030    1.1965 H         1 <0>         0.0836
     32 H5          0.2468    1.4071   -0.5543 H         1 <0>         0.0949
     33 H6         -8.2164   -1.3336   -2.1857 H         1 <0>         0.1593
     34 H7         -9.8445   -0.6846    1.0623 H         1 <0>         0.1273
     35 H8        -12.1978   -1.1404    1.6073 H         1 <0>         0.1306
     36 H9        -13.5989   -2.4329    0.0528 H         1 <0>         0.1299
     37 H10       -12.6596   -3.2778   -2.0577 H         1 <0>         0.1324
     38 H11       -10.3128   -2.8264   -2.6339 H         1 <0>         0.1352
     39 H12        -6.5942   -0.7138   -2.3707 H         1 <0>         0.3978
     40 H13        -0.7037    2.4134   -1.6242 H         1 <0>         0.1352
     41 H14         0.2300    3.0493   -3.8093 H         1 <0>         0.1362
     42 H15        -1.6108   -0.3568   -5.6044 H         1 <0>         0.1348
     43 H16        -2.5417   -1.0137   -3.4243 H         1 <0>         0.1333
@<TRIPOS>BOND
     1    1    2 1
     2    1   28 1
     3    1   29 1
     4    1   30 1
     5    2    3 1
     6    2   31 1
     7    2   32 1
     8    3    7 1
     9    3    4 2
    10    4    5 1
    11    4   21 1
    12    5    6 2
    13    6    7 1
    14    6    8 1
    15    8    9 2
    16    9   10 1
    17    9   20 1
    18   10   11 2
    19   10   18 1
    20   11   12 1
    21   11   33 1
    22   12   17 ar
    23   12   13 ar
    24   13   14 ar
    25   13   34 1
    26   14   15 ar
    27   14   35 1
    28   15   16 ar
    29   15   36 1
    30   16   17 ar
    31   16   37 1
    32   17   38 1
    33   18   19 3
    34   20   39 1
    35   21   26 ar
    36   21   22 ar
    37   22   23 ar
    38   22   40 1
    39   23   24 ar
    40   23   41 1
    41   24   25 ar
    42   24   27 1
    43   25   26 ar
    44   25   42 1
    45   26   43 1
@<TRIPOS>MOLECULE
ZINC12620360
   45    48     0     0     0
SMALL
USER_CHARGES

@<TRIPOS>ATOM
      1 C1          0.2401    1.5904    0.1216 C.ar      1 <0>        -0.1119
      2 C2          1.4783    2.2047    0.1042 C.ar      1 <0>        -0.1349
      3 C3          2.6292    1.4394    0.0770 C.ar      1 <0>        -0.0614
      4 C4          2.5418    0.0598    0.0677 C.ar      1 <0>        -0.1077
      5 C5          1.3035   -0.5544    0.0861 C.ar      1 <0>        -0.0884
      6 C6          0.1527    0.2109    0.1118 C.ar      1 <0>        -0.1308
      7 C7          3.7964   -0.7745    0.0371 C.3       1 <0>         0.1821
      8 N1          4.9019   -0.0163    0.6157 N.2       1 <0>        -0.6656
      9 C8          5.3447   -0.0844    1.8065 C.2       1 <0>         0.6195
     10 O1          6.3608    0.7560    2.1005 O.3       1 <0>        -0.6868
     11 N2          4.9304   -0.8946    2.8322 N.pl3     1 <0>        -0.5520
     12 C9          3.7853   -1.6747    2.6647 C.2       1 <0>         0.4168
     13 N3          2.9527   -1.9321    3.6467 N.2       1 <0>        -0.4900
     14 C10         3.1020   -1.3030    4.8536 C.ar      1 <0>         0.1131
     15 C11         3.0600    0.0908    4.9279 C.ar      1 <0>        -0.1249
     16 C12         3.2112    0.7181    6.1471 C.ar      1 <0>        -0.1010
     17 C13         3.4045   -0.0304    7.2947 C.ar      1 <0>        -0.1292
     18 C14         3.4472   -1.4118    7.2283 C.ar      1 <0>        -0.1040
     19 C15         3.2912   -2.0524    6.0166 C.ar      1 <0>        -0.1103
     20 S1          3.5445   -2.2912    1.0148 S.3       1 <0>        -0.1230
     21 C16         5.6480   -0.9386    4.0344 C.ar      1 <0>         0.1801
     22 C17         6.1117   -2.1525    4.5239 C.ar      1 <0>        -0.1324
     23 C18         6.8189   -2.1925    5.7096 C.ar      1 <0>        -0.1132
     24 C19         7.0649   -1.0254    6.4093 C.ar      1 <0>        -0.1294
     25 C20         6.6040    0.1849    5.9247 C.ar      1 <0>        -0.1130
     26 C21         5.9020    0.2324    4.7362 C.ar      1 <0>        -0.0672
     27 C22         4.1289   -1.1466   -1.4092 C.3       1 <0>         0.4883
     28 F1          4.3270    0.0191   -2.1570 F         1 <0>        -0.1627
     29 F2          5.2938   -1.9210   -1.4355 F         1 <0>        -0.1694
     30 F3          3.0701   -1.8783   -1.9577 F         1 <0>        -0.1830
     31 H1         -0.6590    2.1883    0.1474 H         1 <0>         0.1180
     32 H2          1.5466    3.2825    0.1114 H         1 <0>         0.1208
     33 H3          3.5966    1.9193    0.0627 H         1 <0>         0.1396
     34 H4          1.2352   -1.6322    0.0784 H         1 <0>         0.1327
     35 H5         -0.8148   -0.2690    0.1258 H         1 <0>         0.1214
     36 H6          2.9099    0.6763    4.0329 H         1 <0>         0.1107
     37 H7          3.1789    1.7960    6.2061 H         1 <0>         0.1172
     38 H8          3.5230    0.4659    8.2465 H         1 <0>         0.1160
     39 H9          3.5987   -1.9900    8.1278 H         1 <0>         0.1181
     40 H10         3.3199   -3.1309    5.9668 H         1 <0>         0.1180
     41 H11         5.9193   -3.0644    3.9782 H         1 <0>         0.1110
     42 H12         7.1798   -3.1363    6.0908 H         1 <0>         0.1163
     43 H13         7.6178   -1.0594    7.3364 H         1 <0>         0.1142
     44 H14         6.7974    1.0947    6.4737 H         1 <0>         0.1161
     45 H15         5.5465    1.1786    4.3558 H         1 <0>         0.1222
@<TRIPOS>BOND
     1    1    6 ar
     2    1    2 ar
     3    1   31 1
     4    2    3 ar
     5    2   32 1
     6    3    4 ar
     7    3   33 1
     8    4    5 ar
     9    4    7 1
    10    5    6 ar
    11    5   34 1
    12    6   35 1
    13    7   20 1
    14    7    8 1
    15    7   27 1
    16    8    9 2
    17    9   10 1
    18    9   11 1
    19   11   12 1
    20   11   21 1
    21   12   13 2
    22   12   20 1
    23   13   14 1
    24   14   19 ar
    25   14   15 ar
    26   15   16 ar
    27   15   36 1
    28   16   17 ar
    29   16   37 1
    30   17   18 ar
    31   17   38 1
    32   18   19 ar
    33   18   39 1
    34   19   40 1
    35   21   26 ar
    36   21   22 ar
    37   22   23 ar
    38   22   41 1
    39   23   24 ar
    40   23   42 1
    41   24   25 ar
    42   24   43 1
    43   25   26 ar
    44   25   44 1
    45   26   45 1
    46   27   28 1
    47   27   29 1
    48   27   30 1
@<TRIPOS>MOLECULE
ZINC02203208
   50    53     0     0     0
SMALL
USER_CHARGES

@<TRIPOS>ATOM
      1 C1         -0.0173    1.4248    0.0099 C.3       1 <0>         0.0315
      2 O1          0.0021   -0.0041    0.0020 O.3       1 <0>        -0.3258
      3 C2          0.6258   -0.6184    1.0415 C.ar      1 <0>         0.1009
      4 C3          1.2022    0.1384    2.0513 C.ar      1 <0>        -0.2094
      5 C4          1.8353   -0.4884    3.1070 C.ar      1 <0>        -0.0525
      6 C5          1.8951   -1.8688    3.1577 C.ar      1 <0>        -0.0647
      7 C6          1.3218   -2.6253    2.1523 C.ar      1 <0>        -0.0675
      8 C7          0.6822   -2.0034    1.0976 C.ar      1 <0>        -0.1584
      9 C8          2.5867   -2.5500    4.3104 C.3       1 <0>         0.1334
     10 H1          2.9643   -1.7790    4.9820 H         1 <0>         0.0450
     11 C9          1.5559   -3.3719    5.0634 C.2       1 <0>        -0.2193
     12 C10         1.7914   -4.7312    5.1801 C.2       1 <0>         0.2285
     13 N1          2.8726   -5.3151    4.6599 N.2       1 <0>        -0.6392
     14 C11         3.8218   -4.7063    3.9937 C.2       1 <0>         0.2987
     15 C12         3.7713   -3.3229    3.7625 C.2       1 <0>        -0.3953
     16 C13         4.7340   -2.6808    3.0813 C.2       1 <0>         0.3292
     17 C14         5.9222   -3.4178    2.5231 C.3       1 <0>        -0.1302
     18 C15         6.2229   -4.6333    3.4050 C.3       1 <0>        -0.1089
     19 C16         4.9848   -5.5132    3.4660 C.3       1 <0>        -0.0765
     20 O2          4.6343   -1.3497    2.8931 O.3       1 <0>        -0.6294
     21 S1          0.6225   -5.7250    6.0466 S.3       1 <0>        -0.1056
     22 C17         1.3162   -7.3986    5.9552 C.3       1 <0>        -0.0564
     23 C18         0.4015   -8.3612    6.6678 C.ar      1 <0>        -0.0606
     24 C19         0.5731   -8.6076    8.0171 C.ar      1 <0>        -0.0914
     25 C20        -0.2658   -9.4904    8.6709 C.ar      1 <0>        -0.1166
     26 C21        -1.2770  -10.1274    7.9758 C.ar      1 <0>        -0.1092
     27 C22        -1.4496   -9.8819    6.6269 C.ar      1 <0>        -0.1128
     28 C23        -0.6137   -8.9939    5.9731 C.ar      1 <0>        -0.0222
     29 Cl1        -0.8340   -8.6798    4.2800 Cl        1 <0>        -0.0570
     30 C24         0.3886   -2.7661    5.6300 C.1       1 <0>         0.2917
     31 N2         -0.5374   -2.2855    6.0794 N.1       1 <0>        -0.4825
     32 H2          1.0053    1.8021    0.0021 H         1 <0>         0.0513
     33 H3         -0.5445    1.7859   -0.8732 H         1 <0>         0.0914
     34 H4         -0.5275    1.7763    0.9067 H         1 <0>         0.0499
     35 H5          1.1564    1.2167    2.0118 H         1 <0>         0.1153
     36 H6          2.2842    0.1003    3.8934 H         1 <0>         0.1135
     37 H7          1.3701   -3.7035    2.1940 H         1 <0>         0.1171
     38 H8          0.2307   -2.5948    0.3148 H         1 <0>         0.1177
     39 H9          5.7008   -3.7500    1.5088 H         1 <0>         0.0785
     40 H10         6.7876   -2.7554    2.5090 H         1 <0>         0.0739
     41 H11         7.0519   -5.1978    2.9784 H         1 <0>         0.0664
     42 H12         6.4842   -4.2999    4.4093 H         1 <0>         0.0655
     43 H13         5.1724   -6.3580    4.1287 H         1 <0>         0.0785
     44 H14         4.7508   -5.8785    2.4661 H         1 <0>         0.0807
     45 H15         1.4132   -7.6951    4.9108 H         1 <0>         0.1054
     46 H16         2.2977   -7.4116    6.4291 H         1 <0>         0.1014
     47 H17         1.3631   -8.1106    8.5605 H         1 <0>         0.1345
     48 H18        -0.1310   -9.6829    9.7250 H         1 <0>         0.1289
     49 H19        -1.9320  -10.8174    8.4871 H         1 <0>         0.1300
     50 H20        -2.2394  -10.3797    6.0840 H         1 <0>         0.1328
@<TRIPOS>BOND
     1    1    2 1
     2    1   32 1
     3    1   33 1
     4    1   34 1
     5    2    3 1
     6    3    8 ar
     7    3    4 ar
     8    4    5 ar
     9    4   35 1
    10    5    6 ar
    11    5   36 1
    12    6    7 ar
    13    6    9 1
    14    7    8 ar
    15    7   37 1
    16    8   38 1
    17    9   10 1
    18    9   15 1
    19    9   11 1
    20   11   12 2
    21   11   30 1
    22   12   13 1
    23   12   21 1
    24   13   14 2
    25   14   19 1
    26   14   15 1
    27   15   16 2
    28   16   17 1
    29   16   20 1
    30   17   18 1
    31   17   39 1
    32   17   40 1
    33   18   19 1
    34   18   41 1
    35   18   42 1
    36   19   43 1
    37   19   44 1
    38   21   22 1
    39   22   23 1
    40   22   45 1
    41   22   46 1
    42   23   28 ar
    43   23   24 ar
    44   24   25 ar
    45   24   47 1
    46   25   26 ar
    47   25   48 1
    48   26   27 ar
    49   26   49 1
    50   27   28 ar
    51   27   50 1
    52   28   29 1
    53   30   31 3
@<TRIPOS>MOLECULE
ZINC10146681
   58    62     0     0     0
SMALL
USER_CHARGES
2-[4-[[3-[2-(1H-indol-3-yl)ethyl]-4-oxo-2-phenylimino-thiazolidin-5-ylidene]methyl]phenyl]sulfanylacetic acid
@<TRIPOS>ATOM
      1 C1          0.5696    1.1681   -0.5410 C.ar      1 <0>        -0.1214
      2 C2         -0.6559    1.7912   -0.3847 C.ar      1 <0>        -0.0974
      3 C3         -0.7326    3.1676   -0.3391 C.ar      1 <0>        -0.1476
      4 C4          0.4294    3.9330   -0.4621 C.ar      1 <0>         0.0991
      5 C5          1.6625    3.2973   -0.6253 C.ar      1 <0>        -0.1005
      6 C6          1.7248    1.9199   -0.6639 C.ar      1 <0>        -0.1060
      7 N1          0.3602    5.2989   -0.4225 N.2       1 <0>        -0.4664
      8 C7         -0.5675    5.9301   -1.1071 C.2       1 <0>         0.3845
      9 N2         -0.7955    7.2862   -1.1929 N.am      1 <0>        -0.5406
     10 C8         -1.7825    7.7579   -1.9356 C.2       1 <0>         0.5614
     11 O1         -1.9984    8.9528   -2.0223 O.2       1 <0>        -0.4910
     12 C9         -2.6102    6.7714   -2.6537 C.2       1 <0>        -0.2387
     13 C10        -3.6733    6.9730   -3.4747 C.2       1 <0>         0.0856
     14 C11        -4.2498    5.8471   -4.2185 C.ar      1 <0>        -0.1286
     15 C12        -3.5157    4.6652   -4.3847 C.ar      1 <0>        -0.0613
     16 C13        -4.0585    3.6175   -5.0728 C.ar      1 <0>        -0.1441
     17 C14        -5.3351    3.7272   -5.6194 C.ar      1 <0>        -0.0623
     18 C15        -6.0663    4.9024   -5.4616 C.ar      1 <0>        -0.1159
     19 C16        -5.5337    5.9528   -4.7696 C.ar      1 <0>        -0.0552
     20 S1         -6.0274    2.3752   -6.5125 S.3       1 <0>        -0.0369
     21 C17        -4.7364    1.1023   -6.4520 C.3       1 <0>        -0.1549
     22 C18        -5.2063   -0.1252   -7.1893 C.2       1 <0>         0.4810
     23 O2         -6.2999   -0.1397   -7.7029 O.co2     1 <0>        -0.6147
     24 S2         -1.8342    5.2396   -2.1589 S.3       1 <0>        -0.0184
     25 C19         0.0636    8.2144   -0.4535 C.3       1 <0>         0.1107
     26 C20         1.2528    8.6157   -1.3286 C.3       1 <0>        -0.0532
     27 C21         2.1365    9.5705   -0.5681 C.2       1 <0>        -0.1665
     28 C22         2.0984   10.9112   -0.6248 C.2       1 <0>         0.0595
     29 N3          3.0502   11.4405    0.2036 N.pl3     1 <0>        -0.5956
     30 H1          3.2135   12.3881    0.3309 H         1 <0>         0.4157
     31 C23         3.7416   10.4276    0.8295 C.ar      1 <0>         0.0944
     32 C24         3.1958    9.2118    0.3781 C.ar      1 <0>        -0.0991
     33 C25         3.7109    8.0013    0.8447 C.ar      1 <0>        -0.0653
     34 C26         4.7361    8.0036    1.7483 C.ar      1 <0>        -0.1472
     35 C27         5.2742    9.2001    2.2011 C.ar      1 <0>        -0.0985
     36 C28         4.7851   10.4063    1.7489 C.ar      1 <0>        -0.1337
     37 H2          0.6244    0.0899   -0.5715 H         1 <0>         0.1261
     38 H3         -1.5541    1.1983   -0.2941 H         1 <0>         0.1281
     39 H4         -1.6893    3.6526   -0.2130 H         1 <0>         0.1287
     40 H5          2.5648    3.8829   -0.7215 H         1 <0>         0.1283
     41 H6          2.6775    1.4271   -0.7901 H         1 <0>         0.1282
     42 H7         -4.0943    7.9620   -3.5801 H         1 <0>         0.1568
     43 H8         -2.5241    4.5809   -3.9651 H         1 <0>         0.1338
     44 H9         -3.4952    2.7046   -5.1976 H         1 <0>         0.1311
     45 H10        -7.0558    4.9829   -5.8867 H         1 <0>         0.1339
     46 H11        -6.1016    6.8632   -4.6471 H         1 <0>         0.1330
     47 H12        -3.8289    1.4826   -6.9208 H         1 <0>         0.0933
     48 H13        -4.5284    0.8449   -5.4134 H         1 <0>         0.0935
     49 H14        -0.5074    9.1037   -0.1865 H         1 <0>         0.0941
     50 H15         0.4266    7.7300    0.4529 H         1 <0>         0.0987
     51 H16         1.8238    7.7264   -1.5956 H         1 <0>         0.0773
     52 H17         0.8898    9.1001   -2.2350 H         1 <0>         0.0738
     53 H18         1.4171   11.4868   -1.2338 H         1 <0>         0.1709
     54 H19         3.2974    7.0662    0.4966 H         1 <0>         0.1247
     55 H20         5.1311    7.0667    2.1128 H         1 <0>         0.1217
     56 H21         6.0847    9.1857    2.9147 H         1 <0>         0.1234
     57 H22         5.2102   11.3321    2.1075 H         1 <0>         0.1177
     58 O3         -4.4100   -1.2023   -7.2754 O.co2     1 <0>        -0.7481
@<TRIPOS>BOND
     1    1    6 ar
     2    1    2 ar
     3    1   37 1
     4    2    3 ar
     5    2   38 1
     6    3    4 ar
     7    3   39 1
     8    4    5 ar
     9    4    7 1
    10    5    6 ar
    11    5   40 1
    12    6   41 1
    13    7    8 2
    14    8   24 1
    15    8    9 1
    16    9   10 am
    17    9   25 1
    18   10   11 2
    19   10   12 1
    20   12   13 2
    21   12   24 1
    22   13   14 1
    23   13   42 1
    24   14   19 ar
    25   14   15 ar
    26   15   16 ar
    27   15   43 1
    28   16   17 ar
    29   16   44 1
    30   17   18 ar
    31   17   20 1
    32   18   19 ar
    33   18   45 1
    34   19   46 1
    35   20   21 1
    36   21   22 1
    37   21   47 1
    38   21   48 1
    39   22   23 2
    40   22   58 1
    41   25   26 1
    42   25   49 1
    43   25   50 1
    44   26   27 1
    45   26   51 1
    46   26   52 1
    47   27   32 1
    48   27   28 2
    49   28   29 1
    50   28   53 1
    51   29   30 1
    52   29   31 1
    53   31   36 ar
    54   31   32 ar
    55   32   33 ar
    56   33   34 ar
    57   33   54 1
    58   34   35 ar
    59   34   55 1
    60   35   36 ar
    61   35   56 1
    62   36   57 1
@<TRIPOS>MOLECULE
ZINC35697288
   60    63     0     0     0
SMALL
USER_CHARGES

@<TRIPOS>ATOM
      1 C1          1.0774    1.4387    1.8838 C.3       1 <0>        -0.1085
      2 C2          0.8594    0.0113    1.4525 C.ar      1 <0>        -0.0909
      3 C3          0.5271   -0.2713    0.1408 C.ar      1 <0>        -0.1228
      4 C4          0.3271   -1.5807   -0.2549 C.ar      1 <0>        -0.0739
      5 C5          0.4599   -2.6074    0.6611 C.ar      1 <0>        -0.0766
      6 C6          0.7931   -2.3249    1.9726 C.ar      1 <0>        -0.0880
      7 C7          0.9972   -1.0159    2.3673 C.ar      1 <0>        -0.1225
      8 C8          0.2409   -4.0348    0.2301 C.3       1 <0>         0.2605
      9 H1         -0.2435   -4.0166   -0.7462 H         1 <0>         0.0738
     10 C9          1.5967   -4.6845    0.0651 C.2       1 <0>        -0.3906
     11 C10         1.8667   -5.8116    0.8173 C.2       1 <0>         0.3021
     12 N1          0.9593   -6.2953    1.6498 N.2       1 <0>        -0.5967
     13 C11        -0.2373   -5.7786    1.8401 C.2       1 <0>         0.3199
     14 N2         -0.6981   -4.6657    1.1955 N.pl3     1 <0>        -0.5121
     15 C12        -1.9773   -4.2479    1.5045 C.2       1 <0>         0.2312
     16 C13        -2.6688   -4.9675    2.4155 C.2       1 <0>        -0.3059
     17 S1         -1.5035   -6.2447    2.8383 S.3       1 <0>         0.1414
     18 C14        -2.5657   -3.0620    0.8656 C.2       1 <0>        -0.4655
     19 C15        -3.8601   -2.7554    1.0775 C.2       1 <0>         0.5007
     20 O1         -4.5886   -3.4701    1.9693 O.3       1 <0>        -0.7026
     21 N3         -4.4464   -1.7100    0.3841 N.pl3     1 <0>        -0.7513
     22 C16        -5.8195   -1.3043    0.6941 C.3       1 <0>         0.1789
     23 C17        -6.2585   -0.2364   -0.2743 C.ar      1 <0>        -0.1021
     24 C18        -6.0381    1.0962    0.0205 C.ar      1 <0>        -0.0753
     25 C19        -6.4398    2.0764   -0.8670 C.ar      1 <0>        -0.1562
     26 C20        -7.0633    1.7234   -2.0518 C.ar      1 <0>         0.0926
     27 C21        -7.2836    0.3885   -2.3460 C.ar      1 <0>        -0.1562
     28 C22        -6.8762   -0.5903   -1.4594 C.ar      1 <0>        -0.0737
     29 F1         -7.4569    2.6808   -2.9200 F         1 <0>        -0.1439
     30 C23         3.2036   -6.4950    0.6881 C.3       1 <0>        -0.1088
     31 C24         2.5464   -4.1615   -0.8208 C.2       1 <0>         0.5381
     32 O2          3.6719   -4.6281   -0.8528 O.2       1 <0>        -0.5489
     33 O3          2.2152   -3.1392   -1.6404 O.3       1 <0>        -0.3499
     34 C25         3.2336   -2.6554   -2.5182 C.3       1 <0>         0.0971
     35 C26         2.6848   -1.5242   -3.3491 C.2       1 <0>        -0.1466
     36 C27         3.3895   -0.4326   -3.5165 C.2       1 <0>        -0.1800
     37 H2          2.1261    1.7031    1.7481 H         1 <0>         0.0638
     38 H3          0.4551    2.0996    1.2805 H         1 <0>         0.0621
     39 H4          0.8087    1.5458    2.9347 H         1 <0>         0.0616
     40 H5          0.4234    0.5308   -0.5749 H         1 <0>         0.1144
     41 H6          0.0669   -1.8014   -1.2795 H         1 <0>         0.1185
     42 H7          0.8964   -3.1270    2.6884 H         1 <0>         0.1035
     43 H8          1.2612   -0.7954    3.3911 H         1 <0>         0.1134
     44 H9         -3.6695   -4.8092    2.7897 H         1 <0>         0.2372
     45 H10        -1.9603   -2.4366    0.2264 H         1 <0>         0.0916
     46 H11        -3.9479   -1.2464   -0.3069 H         1 <0>         0.3861
     47 H12        -6.4811   -2.1664    0.6088 H         1 <0>         0.0666
     48 H13        -5.8620   -0.9129    1.7105 H         1 <0>         0.0578
     49 H14        -5.5520    1.3713    0.9449 H         1 <0>         0.1339
     50 H15        -6.2678    3.1173   -0.6363 H         1 <0>         0.1334
     51 H16        -7.7701    0.1120   -3.2697 H         1 <0>         0.1336
     52 H17        -7.0439   -1.6318   -1.6906 H         1 <0>         0.1344
     53 H18         3.9224   -6.0155    1.3526 H         1 <0>         0.0810
     54 H19         3.1024   -7.5457    0.9598 H         1 <0>         0.0643
     55 H20         3.5531   -6.4179   -0.3415 H         1 <0>         0.1041
     56 H21         4.0795   -2.2978   -1.9312 H         1 <0>         0.0648
     57 H22         3.5615   -3.4620   -3.1739 H         1 <0>         0.0694
     58 H23         1.7106   -1.6135   -3.8066 H         1 <0>         0.1170
     59 H24         4.3637   -0.3433   -3.0590 H         1 <0>         0.0969
     60 H25         2.9962    0.3780   -4.1120 H         1 <0>         0.1039
@<TRIPOS>BOND
     1    1    2 1
     2    1   37 1
     3    1   38 1
     4    1   39 1
     5    2    7 ar
     6    2    3 ar
     7    3    4 ar
     8    3   40 1
     9    4    5 ar
    10    4   41 1
    11    5    6 ar
    12    5    8 1
    13    6    7 ar
    14    6   42 1
    15    7   43 1
    16    8    9 1
    17    8   14 1
    18    8   10 1
    19   10   11 2
    20   10   31 1
    21   11   12 1
    22   11   30 1
    23   12   13 2
    24   13   17 1
    25   13   14 1
    26   14   15 1
    27   15   16 2
    28   15   18 1
    29   16   17 1
    30   16   44 1
    31   18   19 2
    32   18   45 1
    33   19   20 1
    34   19   21 1
    35   21   22 1
    36   21   46 1
    37   22   23 1
    38   22   47 1
    39   22   48 1
    40   23   28 ar
    41   23   24 ar
    42   24   25 ar
    43   24   49 1
    44   25   26 ar
    45   25   50 1
    46   26   27 ar
    47   26   29 1
    48   27   28 ar
    49   27   51 1
    50   28   52 1
    51   30   53 1
    52   30   54 1
    53   30   55 1
    54   31   32 2
    55   31   33 1
    56   33   34 1
    57   34   35 1
    58   34   56 1
    59   34   57 1
    60   35   36 2
    61   35   58 1
    62   36   59 1
    63   36   60 1
@<TRIPOS>MOLECULE
ZINC13372433
   55    59     0     0     0
SMALL
USER_CHARGES

@<TRIPOS>ATOM
      1 C1          0.5290    1.8271    2.1243 C.ar      1 <0>        -0.1216
      2 C2          1.7648    2.4662    2.0398 C.ar      1 <0>        -0.1139
      3 C3          2.8892    1.7762    1.7056 C.ar      1 <0>        -0.1125
      4 C4          2.8066    0.3983    1.4413 C.ar      1 <0>        -0.0400
      5 C5          1.5500   -0.2518    1.5276 C.ar      1 <0>        -0.0520
      6 C6          0.4108    0.4944    1.8753 C.ar      1 <0>        -0.1017
      7 C7          1.4675   -1.6293    1.2639 C.ar      1 <0>        -0.1078
      8 C8          2.5922   -2.3197    0.9300 C.ar      1 <0>        -0.1095
      9 C9          3.8275   -1.6808    0.8456 C.ar      1 <0>        -0.0862
     10 C10         3.9455   -0.3476    1.0937 C.ar      1 <0>        -0.0856
     11 C11         5.2906    0.3249    0.9962 C.3       1 <0>         0.1036
     12 O1          6.2798   -0.6393    0.6305 O.3       1 <0>        -0.3028
     13 C12         7.5550   -0.1943    0.4992 C.ar      1 <0>         0.1445
     14 C13         7.8531    1.1404    0.7224 C.ar      1 <0>        -0.2129
     15 C14         9.1518    1.5924    0.5890 C.ar      1 <0>        -0.0794
     16 C15        10.1663    0.7187    0.2317 C.ar      1 <0>        -0.1500
     17 C16         9.8908   -0.6118    0.0054 C.ar      1 <0>        -0.0700
     18 C17         8.5804   -1.0855    0.1420 C.ar      1 <0>        -0.0821
     19 C18         8.2792   -2.5028   -0.0914 C.2       1 <0>        -0.0161
     20 C19         9.1538   -3.2778   -0.7818 C.2       1 <0>        -0.1849
     21 C20         9.1417   -4.7397   -1.0220 C.2       1 <0>         0.5330
     22 O2          8.2592   -5.4577   -0.5797 O.2       1 <0>        -0.5543
     23 N1         10.1338   -5.2211   -1.7383 N.2       1 <0>        -0.7296
     24 C21        11.0966   -4.4537   -2.2241 C.2       1 <0>         0.3573
     25 S1         10.6406   -2.8201   -1.6642 S.3       1 <0>        -0.0850
     26 N2         12.1785   -4.8225   -2.9787 N.2       1 <0>        -0.3233
     27 N3         12.3646   -6.1669   -3.3263 N.am      1 <0>        -0.5464
     28 C22        13.4292   -6.5298   -4.0689 C.2       1 <0>         0.5585
     29 O3         14.2280   -5.6906   -4.4370 O.2       1 <0>        -0.5319
     30 C23        13.6255   -7.9479   -4.4356 C.ar      1 <0>        -0.1099
     31 C24        12.7067   -8.9131   -4.0191 C.ar      1 <0>        -0.0764
     32 C25        12.8949  -10.2347   -4.3647 C.ar      1 <0>        -0.1156
     33 C26        13.9928  -10.6054   -5.1235 C.ar      1 <0>        -0.0196
     34 C27        14.9078   -9.6523   -5.5396 C.ar      1 <0>        -0.1191
     35 C28        14.7274   -8.3269   -5.2047 C.ar      1 <0>        -0.0506
     36 Cl1        14.2234  -12.2712   -5.5543 Cl        1 <0>        -0.0720
     37 H1         -0.3471    2.3973    2.3956 H         1 <0>         0.1220
     38 H2          1.8310    3.5250    2.2424 H         1 <0>         0.1225
     39 H3          3.8399    2.2849    1.6433 H         1 <0>         0.1250
     40 H4         -0.5533    0.0127    1.9449 H         1 <0>         0.1268
     41 H5          0.5168   -2.1380    1.3262 H         1 <0>         0.1276
     42 H6          2.5260   -3.3785    0.7278 H         1 <0>         0.1282
     43 H7          4.7045   -2.2519    0.5790 H         1 <0>         0.1386
     44 H8          5.2507    1.1092    0.2402 H         1 <0>         0.0774
     45 H9          5.5488    0.7626    1.9605 H         1 <0>         0.0772
     46 H10         7.0688    1.8287    1.0009 H         1 <0>         0.1263
     47 H11         9.3779    2.6339    0.7639 H         1 <0>         0.1235
     48 H12        11.1780    1.0828    0.1298 H         1 <0>         0.1266
     49 H13        10.6846   -1.2890   -0.2732 H         1 <0>         0.1484
     50 H14         7.3615   -2.9292    0.2862 H         1 <0>         0.1463
     51 H15        11.7273   -6.8365   -3.0326 H         1 <0>         0.3855
     52 H16        11.8505   -8.6253   -3.4271 H         1 <0>         0.1392
     53 H17        12.1851  -10.9823   -4.0429 H         1 <0>         0.1389
     54 H18        15.7619   -9.9473   -6.1311 H         1 <0>         0.1387
     55 H19        15.4392   -7.5840   -5.5332 H         1 <0>         0.1469
@<TRIPOS>BOND
     1    1    6 ar
     2    1    2 ar
     3    1   37 1
     4    2    3 ar
     5    2   38 1
     6    3    4 ar
     7    3   39 1
     8    4   10 ar
     9    4    5 ar
    10    5    6 ar
    11    5    7 ar
    12    6   40 1
    13    7    8 ar
    14    7   41 1
    15    8    9 ar
    16    8   42 1
    17    9   10 ar
    18    9   43 1
    19   10   11 1
    20   11   12 1
    21   11   44 1
    22   11   45 1
    23   12   13 1
    24   13   18 ar
    25   13   14 ar
    26   14   15 ar
    27   14   46 1
    28   15   16 ar
    29   15   47 1
    30   16   17 ar
    31   16   48 1
    32   17   18 ar
    33   17   49 1
    34   18   19 1
    35   19   20 2
    36   19   50 1
    37   20   25 1
    38   20   21 1
    39   21   22 2
    40   21   23 1
    41   23   24 2
    42   24   25 1
    43   24   26 1
    44   26   27 1
    45   27   28 am
    46   27   51 1
    47   28   29 2
    48   28   30 1
    49   30   35 ar
    50   30   31 ar
    51   31   32 ar
    52   31   52 1
    53   32   33 ar
    54   32   53 1
    55   33   34 ar
    56   33   36 1
    57   34   35 ar
    58   34   54 1
    59   35   55 1
@<TRIPOS>MOLECULE
ZINC40147281
   62    66     0     0     0
SMALL
USER_CHARGES

@<TRIPOS>ATOM
      1 C1          0.6251    0.7756   -0.0105 C.3       1 <0>        -0.1476
      2 C2          0.5854   -0.7479    0.1241 C.3       1 <0>        -0.0811
      3 C3          1.1965   -1.1519    1.4411 C.ar      1 <0>        -0.0951
      4 C4          2.5528   -1.4058    1.5247 C.ar      1 <0>        -0.1176
      5 C5          3.1134   -1.7764    2.7327 C.ar      1 <0>        -0.1085
      6 C6          2.3178   -1.8926    3.8572 C.ar      1 <0>        -0.0690
      7 C7          0.9617   -1.6378    3.7738 C.ar      1 <0>        -0.1098
      8 C8          0.4018   -1.2631    2.5667 C.ar      1 <0>        -0.1180
      9 C9          2.9288   -2.2975    5.1739 C.3       1 <0>         0.0331
     10 C10         3.3706   -1.0665    5.9224 C.2       1 <0>        -0.2751
     11 C11         2.6870   -0.3016    6.8113 C.2       1 <0>         0.0885
     12 N1          3.2653    0.7450    7.3579 N.2       1 <0>        -0.5660
     13 C12         4.5177    1.0732    7.0556 C.2       1 <0>         0.4121
     14 S1          4.9428   -0.2148    5.8907 S.3       1 <0>        -0.1003
     15 N2          5.2724    2.1052    7.5126 N.2       1 <0>        -0.6161
     16 C13         4.7694    2.9524    8.3847 C.2       1 <0>         0.4672
     17 O1          3.5006    2.7952    8.8258 O.3       1 <0>        -0.6348
     18 C14         5.5856    4.0687    8.8790 C.2       1 <0>        -0.0540
     19 C15         5.0580    4.9572    9.7936 C.2       1 <0>         0.0531
     20 C16         5.9127    5.9781   10.3978 C.2       1 <0>        -0.2069
     21 C17         7.2981    5.9946   10.4222 C.2       1 <0>         0.0787
     22 N3          7.6836    7.1058   11.0740 N.pl3     1 <0>        -0.3113
     23 N4          6.5587    7.8272   11.4827 N.2       1 <0>        -0.2772
     24 C18         5.4744    7.1949   11.0951 C.2       1 <0>         0.1567
     25 C19         4.0745    7.6251   11.3219 C.ar      1 <0>        -0.0204
     26 C20         3.0978    7.3640   10.3617 C.ar      1 <0>        -0.0858
     27 C21         1.7959    7.7666   10.5787 C.ar      1 <0>        -0.1157
     28 C22         1.4590    8.4283   11.7460 C.ar      1 <0>        -0.1080
     29 C23         2.4238    8.6905   12.7021 C.ar      1 <0>        -0.1248
     30 C24         3.7278    8.2873   12.4990 C.ar      1 <0>        -0.0874
     31 C25         9.0119    7.4831   11.3081 C.ar      1 <0>         0.1573
     32 C26        10.0528    6.6869   10.8483 C.ar      1 <0>        -0.1377
     33 C27        11.3615    7.0617   11.0808 C.ar      1 <0>        -0.0901
     34 C28        11.6361    8.2281   11.7710 C.ar      1 <0>        -0.1299
     35 C29        10.6019    9.0231   12.2300 C.ar      1 <0>        -0.0977
     36 C30         9.2910    8.6570   11.9954 C.ar      1 <0>        -0.1182
     37 C31         6.9290    4.2351    8.4118 C.1       1 <0>         0.2872
     38 N5          7.9947    4.3672    8.0413 N.1       1 <0>        -0.4482
     39 H1          1.6594    1.1171    0.0300 H         1 <0>         0.0559
     40 H2          0.1830    1.0678   -0.9631 H         1 <0>         0.0542
     41 H3          0.0611    1.2273    0.8055 H         1 <0>         0.0560
     42 H4         -0.4490   -1.0894    0.0836 H         1 <0>         0.0675
     43 H5          1.1493   -1.1996   -0.6919 H         1 <0>         0.0674
     44 H6          3.1743   -1.3150    0.6461 H         1 <0>         0.1162
     45 H7          4.1729   -1.9755    2.7978 H         1 <0>         0.1188
     46 H8          0.3401   -1.7289    4.6522 H         1 <0>         0.1201
     47 H9         -0.6570   -1.0604    2.5023 H         1 <0>         0.1164
     48 H10         2.1903   -2.8375    5.7664 H         1 <0>         0.0816
     49 H11         3.7898   -2.9409    4.9924 H         1 <0>         0.0735
     50 H12         1.6686   -0.5523    7.0690 H         1 <0>         0.1346
     51 H13         4.0138    4.8985   10.0631 H         1 <0>         0.1633
     52 H14         7.9513    5.2484    9.9947 H         1 <0>         0.1896
     53 H15         3.3598    6.8481    9.4498 H         1 <0>         0.1341
     54 H16         1.0384    7.5649    9.8357 H         1 <0>         0.1303
     55 H17         0.4388    8.7418   11.9113 H         1 <0>         0.1237
     56 H18         2.1551    9.2078   13.6112 H         1 <0>         0.1246
     57 H19         4.4793    8.4883   13.2482 H         1 <0>         0.1255
     58 H20         9.8390    5.7754   10.3099 H         1 <0>         0.1320
     59 H21        12.1714    6.4429   10.7235 H         1 <0>         0.1341
     60 H22        12.6604    8.5187   11.9521 H         1 <0>         0.1285
     61 H23        10.8196    9.9334   12.7690 H         1 <0>         0.1317
     62 H24         8.4838    9.2806   12.3504 H         1 <0>         0.1385
@<TRIPOS>BOND
     1    1    2 1
     2    1   39 1
     3    1   40 1
     4    1   41 1
     5    2    3 1
     6    2   42 1
     7    2   43 1
     8    3    8 ar
     9    3    4 ar
    10    4    5 ar
    11    4   44 1
    12    5    6 ar
    13    5   45 1
    14    6    7 ar
    15    6    9 1
    16    7    8 ar
    17    7   46 1
    18    8   47 1
    19    9   10 1
    20    9   48 1
    21    9   49 1
    22   10   14 1
    23   10   11 2
    24   11   12 1
    25   11   50 1
    26   12   13 2
    27   13   14 1
    28   13   15 1
    29   15   16 2
    30   16   17 1
    31   16   18 1
    32   18   19 2
    33   18   37 1
    34   19   20 1
    35   19   51 1
    36   20   24 1
    37   20   21 2
    38   21   22 1
    39   21   52 1
    40   22   23 1
    41   22   31 1
    42   23   24 2
    43   24   25 1
    44   25   30 ar
    45   25   26 ar
    46   26   27 ar
    47   26   53 1
    48   27   28 ar
    49   27   54 1
    50   28   29 ar
    51   28   55 1
    52   29   30 ar
    53   29   56 1
    54   30   57 1
    55   31   36 ar
    56   31   32 ar
    57   32   33 ar
    58   32   58 1
    59   33   34 ar
    60   33   59 1
    61   34   35 ar
    62   34   60 1
    63   35   36 ar
    64   35   61 1
    65   36   62 1
    66   37   38 3
@<TRIPOS>MOLECULE
ZINC44323123
   60    64     0     0     0
SMALL
USER_CHARGES

@<TRIPOS>ATOM
      1 C1         -0.0173    1.4248    0.0099 C.3       1 <0>         0.0258
      2 O1          0.0021   -0.0041    0.0020 O.3       1 <0>        -0.3025
      3 C2          0.6057   -0.6070   -1.0555 C.ar      1 <0>         0.1423
      4 C3          1.1723    0.1580   -2.0613 C.ar      1 <0>        -0.2092
      5 C4          1.7862   -0.4563   -3.1370 C.ar      1 <0>        -0.0777
      6 C5          1.8388   -1.8369   -3.2171 C.ar      1 <0>        -0.1554
      7 C6          1.2788   -2.6128   -2.2229 C.ar      1 <0>        -0.0598
      8 C7          0.6622   -2.0038   -1.1297 C.ar      1 <0>        -0.0307
      9 C8          0.0662   -2.8293   -0.0581 C.2       1 <0>        -0.1221
     10 C9         -0.7945   -3.8890   -0.1631 C.2       1 <0>        -0.1342
     11 C10        -1.2215   -4.5120    0.9898 C.2       1 <0>        -0.1705
     12 C11        -0.7780   -4.0585    2.1898 C.2       1 <0>        -0.1182
     13 S1          0.2874   -2.7091    1.7094 S.3       1 <0>         0.0671
     14 C12        -1.0983   -4.5669    3.5718 C.3       1 <0>        -0.0323
     15 C13        -0.0852   -5.6433    3.9667 C.3       1 <0>         0.0993
     16 H1         -0.0721   -6.4258    3.2080 H         1 <0>         0.0901
     17 C14        -0.4763   -6.2381    5.2950 C.2       1 <0>         0.4926
     18 O2         -1.4666   -6.9443    5.3788 O.co2     1 <0>        -0.6906
     19 O3          0.1976   -6.0130    6.2858 O.co2     1 <0>        -0.6799
     20 N1          1.2474   -5.0441    4.0734 N.am      1 <0>        -0.6706
     21 C15         2.3451   -5.8084    3.9083 C.2       1 <0>         0.6543
     22 O4          2.2295   -6.9945    3.6711 O.2       1 <0>        -0.5753
     23 O5          3.5698   -5.2577    4.0063 O.3       1 <0>        -0.3682
     24 C16         4.6887   -6.1268    3.8200 C.3       1 <0>         0.1088
     25 C17         5.9852   -5.3278    3.9672 C.3       1 <0>        -0.0104
     26 C18         6.1350   -4.3639    2.8158 C.ar      1 <0>        -0.0764
     27 C19         5.3586   -3.3092    2.3846 C.ar      1 <0>        -0.0838
     28 C20         5.7400   -2.5770    1.2741 C.ar      1 <0>        -0.1111
     29 C21         6.9003   -2.9013    0.5946 C.ar      1 <0>        -0.1206
     30 C22         7.6831   -3.9549    1.0190 C.ar      1 <0>        -0.0991
     31 C23         7.3045   -4.6980    2.1385 C.ar      1 <0>        -0.0615
     32 C24         7.9453   -5.8600    2.8027 C.ar      1 <0>        -0.0485
     33 C25         7.1760   -6.2518    3.8950 C.ar      1 <0>        -0.0824
     34 C26         7.5689   -7.3181    4.6757 C.ar      1 <0>        -0.0936
     35 C27         8.7326   -8.0044    4.3761 C.ar      1 <0>        -0.1139
     36 C28         9.5038   -7.6223    3.2933 C.ar      1 <0>        -0.1179
     37 C29         9.1180   -6.5570    2.5064 C.ar      1 <0>        -0.0993
     38 H2          1.0053    1.8021    0.0021 H         1 <0>         0.0552
     39 H3         -0.5445    1.7859   -0.8732 H         1 <0>         0.0543
     40 H4         -0.5275    1.7763    0.9067 H         1 <0>         0.1016
     41 H5          1.1343    1.2359   -2.0055 H         1 <0>         0.1298
     42 H6          2.2268    0.1443   -3.9190 H         1 <0>         0.1248
     43 H7          2.3196   -2.3089   -4.0611 H         1 <0>         0.1266
     44 H8          1.3214   -3.6899   -2.2890 H         1 <0>         0.1323
     45 H9         -1.1326   -4.2298   -1.1305 H         1 <0>         0.1275
     46 H10        -1.9007   -5.3502    0.9390 H         1 <0>         0.1336
     47 H11        -1.0482   -3.7424    4.2829 H         1 <0>         0.0822
     48 H12        -2.1018   -4.9924    3.5789 H         1 <0>         0.1114
     49 H13         1.3397   -4.0972    4.2628 H         1 <0>         0.3955
     50 H14         4.6627   -6.9183    4.5690 H         1 <0>         0.0738
     51 H15         4.6446   -6.5675    2.8240 H         1 <0>         0.0675
     52 H16         5.9868   -4.7868    4.9135 H         1 <0>         0.1147
     53 H17         4.4522   -3.0547    2.9136 H         1 <0>         0.1316
     54 H18         5.1307   -1.7513    0.9373 H         1 <0>         0.1252
     55 H19         7.1944   -2.3276   -0.2719 H         1 <0>         0.1235
     56 H20         8.5881   -4.2049    0.4853 H         1 <0>         0.1199
     57 H21         6.9683   -7.6177    5.5218 H         1 <0>         0.1288
     58 H22         9.0392   -8.8392    4.9888 H         1 <0>         0.1280
     59 H23        10.4117   -8.1600    3.0631 H         1 <0>         0.1255
     60 H24         9.7231   -6.2620    1.6619 H         1 <0>         0.1220
@<TRIPOS>BOND
     1    1    2 1
     2    1   38 1
     3    1   39 1
     4    1   40 1
     5    2    3 1
     6    3    8 ar
     7    3    4 ar
     8    4    5 ar
     9    4   41 1
    10    5    6 ar
    11    5   42 1
    12    6    7 ar
    13    6   43 1
    14    7    8 ar
    15    7   44 1
    16    8    9 1
    17    9   13 1
    18    9   10 2
    19   10   11 1
    20   10   45 1
    21   11   12 2
    22   11   46 1
    23   12   13 1
    24   12   14 1
    25   14   15 1
    26   14   47 1
    27   14   48 1
    28   15   16 1
    29   15   17 1
    30   15   20 1
    31   17   18 2
    32   17   19 1
    33   20   21 am
    34   20   49 1
    35   21   22 2
    36   21   23 1
    37   23   24 1
    38   24   25 1
    39   24   50 1
    40   24   51 1
    41   25   33 1
    42   25   26 1
    43   25   52 1
    44   26   31 ar
    45   26   27 ar
    46   27   28 ar
    47   27   53 1
    48   28   29 ar
    49   28   54 1
    50   29   30 ar
    51   29   55 1
    52   30   31 ar
    53   30   56 1
    54   31   32 1
    55   32   37 ar
    56   32   33 ar
    57   33   34 ar
    58   34   35 ar
    59   34   57 1
    60   35   36 ar
    61   35   58 1
    62   36   37 ar
    63   36   59 1
    64   37   60 1
@<TRIPOS>MOLECULE
ZINC04795371
   52    54     0     0     0
SMALL
USER_CHARGES
2-(7-bicyclo[9.2.2]pentadeca-12,14,16-trienyloxycarbonyl)benzoic acid
@<TRIPOS>ATOM
      1 C1          1.0607   10.4434   -4.2215 C.ar      1 <0>        -0.0976
      2 C2          1.1485    9.1680   -4.7509 C.ar      1 <0>        -0.1503
      3 C3          0.6795    8.0806   -4.0379 C.ar      1 <0>        -0.0770
      4 C4          0.1039    8.2664   -2.7837 C.ar      1 <0>        -0.1089
      5 C5          0.0144    9.5639   -2.2451 C.ar      1 <0>        -0.0362
      6 C6          0.4975   10.6465   -2.9755 C.ar      1 <0>        -0.1095
      7 C7         -0.5883    9.7759   -0.9118 C.2       1 <0>         0.4984
      8 O1         -0.1650    9.1666    0.0497 O.co2     1 <0>        -0.6003
      9 C8         -0.4049    7.1073   -2.0198 C.2       1 <0>         0.4870
     10 O2         -1.0058    7.2825   -0.9790 O.2       1 <0>        -0.4383
     11 O3         -0.2019    5.8570   -2.4782 O.3       1 <0>        -0.3609
     12 C9         -0.7292    4.7673   -1.6764 C.3       1 <0>         0.0547
     13 H1         -0.7334    5.0581   -0.6260 H         1 <0>         0.1268
     14 C10         0.1493    3.5289   -1.8589 C.3       1 <0>        -0.1141
     15 C11         1.0237    3.3332   -0.6183 C.3       1 <0>        -0.1415
     16 C12         0.8660    1.9021   -0.1008 C.3       1 <0>        -0.1276
     17 C13         1.5181    1.7829    1.2781 C.3       1 <0>        -0.1161
     18 C14         0.5253    2.2378    2.3525 C.3       1 <0>        -0.0815
     19 C15        -0.5364    3.0912    1.7074 C.ar      1 <0>        -0.0809
     20 C16        -0.4015    4.4666    1.6884 C.ar      1 <0>        -0.1215
     21 C17        -1.3521    5.2457    1.0553 C.ar      1 <0>        -0.1000
     22 C18        -2.4379    4.6488    0.4429 C.ar      1 <0>        -0.0708
     23 C19        -2.5854    3.2751    0.4829 C.ar      1 <0>        -0.1237
     24 C20        -1.6349    2.4960    1.1156 C.ar      1 <0>        -0.1227
     25 C21        -3.4632    5.4960   -0.2672 C.3       1 <0>        -0.0784
     26 C22        -3.0814    5.6108   -1.7452 C.3       1 <0>        -0.1292
     27 C23        -2.1579    4.4501   -2.1235 C.3       1 <0>        -0.1384
     28 H2          1.4347   11.2853   -4.7850 H         1 <0>         0.1221
     29 H3          1.5904    9.0207   -5.7253 H         1 <0>         0.1217
     30 H4          0.7555    7.0875   -4.4555 H         1 <0>         0.1294
     31 H5          0.4320   11.6448   -2.5688 H         1 <0>         0.1294
     32 H6          0.7853    3.6607   -2.7342 H         1 <0>         0.0702
     33 H7         -0.4835    2.6524   -1.9990 H         1 <0>         0.0739
     34 H8          0.7166    4.0354    0.1567 H         1 <0>         0.0889
     35 H9          2.0671    3.5125   -0.8776 H         1 <0>         0.0557
     36 H10         1.3483    1.2107   -0.7917 H         1 <0>         0.0528
     37 H11        -0.1937    1.6585   -0.0238 H         1 <0>         0.0796
     38 H12         1.7991    0.7454    1.4588 H         1 <0>         0.0607
     39 H13         2.4073    2.4122    1.3152 H         1 <0>         0.0630
     40 H14         0.0620    1.3657    2.8139 H         1 <0>         0.0686
     41 H15         1.0496    2.8188    3.1112 H         1 <0>         0.0696
     42 H16         0.4466    4.9327    2.1677 H         1 <0>         0.1193
     43 H17        -1.2461    6.3204    1.0390 H         1 <0>         0.1466
     44 H18        -3.4433    2.8104    0.0198 H         1 <0>         0.1165
     45 H19        -1.7505    1.4227    1.1479 H         1 <0>         0.1158
     46 H20        -3.4886    6.4893    0.1808 H         1 <0>         0.0804
     47 H21        -4.4448    5.0302   -0.1795 H         1 <0>         0.0637
     48 H22        -2.5657    6.5559   -1.9151 H         1 <0>         0.0817
     49 H23        -3.9823    5.5730   -2.3576 H         1 <0>         0.0587
     50 H24        -2.1773    4.3078   -3.2040 H         1 <0>         0.0621
     51 H25        -2.4988    3.5395   -1.6310 H         1 <0>         0.0841
     52 O4         -1.6070   10.6446   -0.7636 O.co2     1 <0>        -0.7557
@<TRIPOS>BOND
     1    1    6 ar
     2    1    2 ar
     3    1   28 1
     4    2    3 ar
     5    2   29 1
     6    3    4 ar
     7    3   30 1
     8    4    5 ar
     9    4    9 1
    10    5    6 ar
    11    5    7 1
    12    6   31 1
    13    7    8 2
    14    7   52 1
    15    9   10 2
    16    9   11 1
    17   11   12 1
    18   12   13 1
    19   12   27 1
    20   12   14 1
    21   14   15 1
    22   14   32 1
    23   14   33 1
    24   15   16 1
    25   15   34 1
    26   15   35 1
    27   16   17 1
    28   16   36 1
    29   16   37 1
    30   17   18 1
    31   17   38 1
    32   17   39 1
    33   18   19 1
    34   18   40 1
    35   18   41 1
    36   19   24 ar
    37   19   20 ar
    38   20   21 ar
    39   20   42 1
    40   21   22 ar
    41   21   43 1
    42   22   23 ar
    43   22   25 1
    44   23   24 ar
    45   23   44 1
    46   24   45 1
    47   25   26 1
    48   25   46 1
    49   25   47 1
    50   26   27 1
    51   26   48 1
    52   26   49 1
    53   27   50 1
    54   27   51 1
@<TRIPOS>MOLECULE
ZINC13351983
   29    30     0     0     0
SMALL
USER_CHARGES
5-[(N'E)-N'-[(5-bromo-2-fluoro-phenyl)methylene]hydrazino]-2-chloro-benzoic acid
@<TRIPOS>ATOM
      1 C1         -2.4303    1.3664    0.0152 C.ar      1 <0>        -0.1445
      2 C2         -3.6392    2.0355    0.0295 C.ar      1 <0>        -0.0993
      3 C3         -3.6695    3.4166    0.0371 C.ar      1 <0>        -0.0383
      4 C4         -2.4742    4.1416    0.0358 C.ar      1 <0>        -0.0728
      5 C5         -1.2539    3.4651    0.0268 C.ar      1 <0>        -0.1173
      6 C6         -1.2353    2.0783    0.0192 C.ar      1 <0>         0.1805
      7 N1         -0.0169    1.3968    0.0097 N.pl3     1 <0>        -0.5700
      8 N2          0.0021   -0.0041    0.0020 N.2       1 <0>        -0.1962
      9 C7          1.1351   -0.6379   -0.0122 C.2       1 <0>         0.0462
     10 C8          1.1551   -2.1120   -0.0203 C.ar      1 <0>        -0.0586
     11 C9          2.3721   -2.7974   -0.0414 C.ar      1 <0>        -0.0437
     12 C10         2.3834   -4.1773   -0.0435 C.ar      1 <0>        -0.1066
     13 C11         1.1922   -4.8835   -0.0359 C.ar      1 <0>        -0.0574
     14 C12        -0.0173   -4.2129   -0.0204 C.ar      1 <0>        -0.1513
     15 C13        -0.0446   -2.8313   -0.0127 C.ar      1 <0>         0.1438
     16 F1         -1.2266   -2.1772    0.0016 F         1 <0>        -0.1091
     17 Br1         4.0302   -5.1066   -0.0648 Br        1 <0>        -0.0418
     18 C14        -2.5029    5.6180    0.0445 C.2       1 <0>         0.4862
     19 O1         -3.5666    6.2047    0.0523 O.co2     1 <0>        -0.6014
     20 Cl1        -5.1915    4.2516    0.0489 Cl        1 <0>        -0.0515
     21 H1         -2.4131    0.2866    0.0051 H         1 <0>         0.1354
     22 H2         -4.5635    1.4769    0.0301 H         1 <0>         0.1289
     23 H3         -0.3270    4.0194    0.0254 H         1 <0>         0.1387
     24 H4          0.8164    1.8932    0.0044 H         1 <0>         0.3927
     25 H5          2.0630   -0.0852   -0.0181 H         1 <0>         0.1254
     26 H6          3.3022   -2.2485   -0.0519 H         1 <0>         0.1469
     27 H7          1.2077   -5.9634   -0.0418 H         1 <0>         0.1432
     28 H8         -0.9424   -4.7702   -0.0145 H         1 <0>         0.1478
     29 O2         -1.3496    6.3142    0.0437 O.co2     1 <0>        -0.7560
@<TRIPOS>BOND
     1    1    6 ar
     2    1    2 ar
     3    1   21 1
     4    2    3 ar
     5    2   22 1
     6    3    4 ar
     7    3   20 1
     8    4    5 ar
     9    4   18 1
    10    5    6 ar
    11    5   23 1
    12    6    7 1
    13    7    8 1
    14    7   24 1
    15    8    9 2
    16    9   10 1
    17    9   25 1
    18   10   15 ar
    19   10   11 ar
    20   11   12 ar
    21   11   26 1
    22   12   13 ar
    23   12   17 1
    24   13   14 ar
    25   13   27 1
    26   14   15 ar
    27   14   28 1
    28   15   16 1
    29   18   19 2
    30   18   29 1
@<TRIPOS>MOLECULE
ZINC05238280
   41    43     0     0     0
SMALL
USER_CHARGES

@<TRIPOS>ATOM
      1 C1         -0.0184    1.5028    0.0103 C.3       1 <0>        -0.1133
      2 C2          0.0021   -0.0041    0.0020 C.ar      1 <0>        -0.0881
      3 C3          0.0057   -0.6887   -1.1989 C.ar      1 <0>        -0.1220
      4 C4          0.0245   -2.0709   -1.2065 C.ar      1 <0>        -0.0963
      5 C5          0.0400   -2.7685   -0.0132 C.ar      1 <0>        -0.0723
      6 C6          0.0373   -2.0839    1.1877 C.ar      1 <0>        -0.0963
      7 C7          0.0229   -0.7016    1.1953 C.ar      1 <0>        -0.1220
      8 C8          0.0595   -4.2753   -0.0215 C.3       1 <0>        -0.0621
      9 S1          1.7773   -4.8578   -0.0342 S.3       1 <0>        -0.0255
     10 C9          1.6320   -6.6138   -0.0429 C.ar      1 <0>         0.3516
     11 N1          2.7354   -7.3484   -0.0476 N.ar      1 <0>        -0.5700
     12 C10         2.6723   -8.6763   -0.0543 C.ar      1 <0>         0.2819
     13 C11         1.4059   -9.2973   -0.0562 C.ar      1 <0>        -0.2592
     14 C12         0.2636   -8.4734   -0.0511 C.ar      1 <0>         0.4812
     15 O1         -0.9759   -9.0167   -0.0523 O.3       1 <0>        -0.6626
     16 N2          0.4220   -7.1574   -0.0392 N.ar      1 <0>        -0.6021
     17 C13         1.2851  -10.7242   -0.0638 C.1       1 <0>         0.3128
     18 N3          1.1893  -11.8561   -0.0698 N.1       1 <0>        -0.4793
     19 C14         3.9103   -9.4894   -0.0600 C.ar      1 <0>        -0.0459
     20 C15         3.9521  -10.7059    0.6209 C.ar      1 <0>        -0.0890
     21 C16         5.1082  -11.4591    0.6115 C.ar      1 <0>        -0.1231
     22 C17         6.2244  -11.0097   -0.0710 C.ar      1 <0>        -0.0832
     23 C18         6.1891   -9.8038   -0.7483 C.ar      1 <0>        -0.1296
     24 C19         5.0371   -9.0444   -0.7510 C.ar      1 <0>        -0.0700
     25 C20         7.4842  -11.8368   -0.0764 C.3       1 <0>        -0.1120
     26 H1          1.0042    1.8801    0.0026 H         1 <0>         0.0690
     27 H2         -0.5455    1.8639   -0.8728 H         1 <0>         0.0644
     28 H3         -0.5286    1.8543    0.9071 H         1 <0>         0.0644
     29 H4         -0.0064   -0.1436   -2.1312 H         1 <0>         0.1215
     30 H5          0.0266   -2.6057   -2.1448 H         1 <0>         0.1261
     31 H6          0.0491   -2.6289    2.1200 H         1 <0>         0.1261
     32 H7          0.0245   -0.1667    2.1335 H         1 <0>         0.1215
     33 H8         -0.4447   -4.6501    0.8693 H         1 <0>         0.1019
     34 H9         -0.4546   -4.6404   -0.9106 H         1 <0>         0.1019
     35 H10         3.0816  -11.0574    1.1547 H         1 <0>         0.1247
     36 H11         5.1418  -12.4013    1.1384 H         1 <0>         0.1218
     37 H12         7.0637   -9.4582   -1.2793 H         1 <0>         0.1230
     38 H13         5.0093   -8.1054   -1.2838 H         1 <0>         0.1324
     39 H14         7.4656  -12.5215   -0.9243 H         1 <0>         0.0683
     40 H15         8.3499  -11.1796   -0.1589 H         1 <0>         0.0649
     41 H16         7.5482  -12.4074    0.8501 H         1 <0>         0.0642
@<TRIPOS>BOND
     1    1    2 1
     2    1   26 1
     3    1   27 1
     4    1   28 1
     5    2    7 ar
     6    2    3 ar
     7    3    4 ar
     8    3   29 1
     9    4    5 ar
    10    4   30 1
    11    5    6 ar
    12    5    8 1
    13    6    7 ar
    14    6   31 1
    15    7   32 1
    16    8    9 1
    17    8   33 1
    18    8   34 1
    19    9   10 1
    20   10   16 ar
    21   10   11 ar
    22   11   12 ar
    23   12   13 ar
    24   12   19 1
    25   13   14 ar
    26   13   17 1
    27   14   15 1
    28   14   16 ar
    29   17   18 3
    30   19   24 ar
    31   19   20 ar
    32   20   21 ar
    33   20   35 1
    34   21   22 ar
    35   21   36 1
    36   22   23 ar
    37   22   25 1
    38   23   24 ar
    39   23   37 1
    40   24   38 1
    41   25   39 1
    42   25   40 1
    43   25   41 1
@<TRIPOS>MOLECULE
ZINC41769102
   35    36     0     0     0
SMALL
USER_CHARGES

@<TRIPOS>ATOM
      1 C1         -0.3126    1.5033    0.0294 C.3       1 <0>        -0.1456
      2 C2         -0.1486   -0.0178    0.0149 C.3       1 <0>        -0.1258
      3 C3          0.7159   -0.4489    1.2014 C.3       1 <0>         0.1434
      4 C4          2.1062    0.1093    1.0390 C.ar      1 <0>        -0.0258
      5 C5          2.6217    0.3233   -0.2260 C.ar      1 <0>        -0.0945
      6 C6          3.8969    0.8352   -0.3758 C.ar      1 <0>        -0.1079
      7 C7          4.6577    1.1331    0.7393 C.ar      1 <0>        -0.1257
      8 C8          4.1425    0.9192    2.0051 C.ar      1 <0>        -0.0303
      9 C9          2.8636    0.4124    2.1544 C.ar      1 <0>        -0.1148
     10 Cl1         5.0974    1.2931    3.4058 Cl        1 <0>        -0.0828
     11 C10         0.7816   -1.9535    1.2545 C.2       1 <0>         0.4953
     12 O1          1.2413   -2.5773    0.3131 O.co2     1 <0>        -0.6826
     13 O2          0.3752   -2.5471    2.2388 O.co2     1 <0>        -0.6625
     14 N1          0.1280    0.0584    2.4437 N.pl3     1 <0>        -0.7133
     15 C11        -1.1848   -0.2767    2.7828 C.ar      1 <0>         0.2553
     16 C12        -1.8723   -1.2322    2.0448 C.ar      1 <0>        -0.1324
     17 C13        -3.1701   -1.5614    2.3825 C.ar      1 <0>        -0.0838
     18 C14        -3.7861   -0.9412    3.4541 C.ar      1 <0>        -0.1572
     19 C15        -3.1049    0.0109    4.1910 C.ar      1 <0>        -0.0534
     20 C16        -1.8039    0.3403    3.8621 C.ar      1 <0>        -0.1809
     21 I1         -4.0438    0.9480    5.8125 I         1 <0>        -0.0744
     22 H1          0.6672    1.9751   -0.0445 H         1 <0>         0.0504
     23 H2         -0.9284    1.8105   -0.8159 H         1 <0>         0.0473
     24 H3         -0.7934    1.8081    0.9590 H         1 <0>         0.0547
     25 H4         -1.1284   -0.4896    0.0888 H         1 <0>         0.0736
     26 H5          0.3322   -0.3225   -0.9147 H         1 <0>         0.0764
     27 H6          2.0279    0.0900   -1.0975 H         1 <0>         0.1335
     28 H7          4.2990    1.0021   -1.3641 H         1 <0>         0.1294
     29 H8          5.6543    1.5324    0.6221 H         1 <0>         0.1275
     30 H9          2.4592    0.2493    3.1424 H         1 <0>         0.1290
     31 H10         0.6505    0.6270    3.0307 H         1 <0>         0.3894
     32 H11        -1.3922   -1.7168    1.2075 H         1 <0>         0.1372
     33 H12        -3.7050   -2.3038    1.8088 H         1 <0>         0.1201
     34 H13        -4.8012   -1.2005    3.7161 H         1 <0>         0.1147
     35 H14        -1.2706    1.0800    4.4407 H         1 <0>         0.1163
@<TRIPOS>BOND
     1    1    2 1
     2    1   22 1
     3    1   23 1
     4    1   24 1
     5    2    3 1
     6    2   25 1
     7    2   26 1
     8    3    4 1
     9    3   11 1
    10    3   14 1
    11    4    9 ar
    12    4    5 ar
    13    5    6 ar
    14    5   27 1
    15    6    7 ar
    16    6   28 1
    17    7    8 ar
    18    7   29 1
    19    8    9 ar
    20    8   10 1
    21    9   30 1
    22   11   12 2
    23   11   13 1
    24   14   15 1
    25   14   31 1
    26   15   20 ar
    27   15   16 ar
    28   16   17 ar
    29   16   32 1
    30   17   18 ar
    31   17   33 1
    32   18   19 ar
    33   18   34 1
    34   19   20 ar
    35   19   21 1
    36   20   35 1
@<TRIPOS>MOLECULE
ZINC27229188
   38    40     0     0     0
SMALL
USER_CHARGES

@<TRIPOS>ATOM
      1 C1          1.6879    0.0027    0.0376 C.3       1 <0>        -0.1071
      2 C2          0.4198    0.1860   -0.7556 C.2       1 <0>        -0.0840
      3 C3         -0.4515    1.1678   -0.4223 C.2       1 <0>        -0.0742
      4 C4         -0.2463    1.9461    0.8078 C.ar      1 <0>        -0.0406
      5 C5         -0.4825    3.3255    0.8152 C.ar      1 <0>        -0.1015
      6 C6         -0.2877    4.0481    1.9730 C.ar      1 <0>        -0.1221
      7 C7          0.1407    3.4130    3.1259 C.ar      1 <0>        -0.1282
      8 C8          0.3771    2.0490    3.1269 C.ar      1 <0>        -0.1255
      9 C9          0.1807    1.3108    1.9793 C.ar      1 <0>        -0.1145
     10 C10         0.1406   -0.6639   -1.8440 C.2       1 <0>        -0.0207
     11 C11        -0.0785   -0.1363   -3.0828 C.2       1 <0>        -0.1873
     12 C12         0.0570    1.2592   -3.5563 C.2       1 <0>         0.5279
     13 O1          0.4121    2.1599   -2.8121 O.2       1 <0>        -0.5213
     14 N1         -0.2253    1.4765   -4.8222 N.2       1 <0>        -0.7145
     15 C13        -0.6107    0.5094   -5.6395 C.2       1 <0>         0.4563
     16 S1         -0.6028   -0.9379   -4.5931 S.3       1 <0>        -0.1309
     17 N2         -0.9338    0.5968   -6.9690 N.2       1 <0>        -0.5635
     18 C14        -0.7482    1.8011   -7.6563 C.ar      1 <0>         0.1835
     19 C15         0.2597    2.6748   -7.2694 C.ar      1 <0>        -0.1319
     20 C16         0.4411    3.8628   -7.9498 C.ar      1 <0>        -0.0884
     21 C17        -0.3805    4.1840   -9.0163 C.ar      1 <0>        -0.0731
     22 C18        -1.3860    3.3163   -9.4043 C.ar      1 <0>        -0.0894
     23 C19        -1.5684    2.1230   -8.7311 C.ar      1 <0>        -0.0492
     24 Cl1        -2.8250    1.0309   -9.2230 Cl        1 <0>        -0.0681
     25 Cl2        -0.1494    5.6787   -9.8684 Cl        1 <0>        -0.0896
     26 H1          1.4926   -0.6488    0.8894 H         1 <0>         0.0652
     27 H2          2.4514   -0.4476   -0.5967 H         1 <0>         0.0607
     28 H3          2.0368    0.9719    0.3940 H         1 <0>         0.0695
     29 H4         -1.2970    1.3789   -1.0603 H         1 <0>         0.1189
     30 H5         -0.8162    3.8225   -0.0837 H         1 <0>         0.1255
     31 H6         -0.4696    5.1126    1.9804 H         1 <0>         0.1195
     32 H7          0.2918    3.9848    4.0295 H         1 <0>         0.1166
     33 H8          0.7115    1.5611    4.0305 H         1 <0>         0.1187
     34 H9          0.3608    0.2459    1.9830 H         1 <0>         0.1263
     35 H10         0.1001   -1.7332   -1.6976 H         1 <0>         0.1310
     36 H11         0.9009    2.4255   -6.4369 H         1 <0>         0.1480
     37 H12         1.2249    4.5423   -7.6491 H         1 <0>         0.1256
     38 H13        -2.0261    3.5697  -10.2364 H         1 <0>         0.1325
@<TRIPOS>BOND
     1    1    2 1
     2    1   26 1
     3    1   27 1
     4    1   28 1
     5    2    3 2
     6    2   10 1
     7    3    4 1
     8    3   29 1
     9    4    9 ar
    10    4    5 ar
    11    5    6 ar
    12    5   30 1
    13    6    7 ar
    14    6   31 1
    15    7    8 ar
    16    7   32 1
    17    8    9 ar
    18    8   33 1
    19    9   34 1
    20   10   11 2
    21   10   35 1
    22   11   16 1
    23   11   12 1
    24   12   13 2
    25   12   14 1
    26   14   15 2
    27   15   16 1
    28   15   17 1
    29   17   18 1
    30   18   23 ar
    31   18   19 ar
    32   19   20 ar
    33   19   36 1
    34   20   21 ar
    35   20   37 1
    36   21   22 ar
    37   21   25 1
    38   22   23 ar
    39   22   38 1
    40   23   24 1
@<TRIPOS>MOLECULE
ZINC18180230
   60    64     0     0     0
SMALL
USER_CHARGES

@<TRIPOS>ATOM
      1 C1         -0.0187    1.5258    0.0104 C.3       1 <0>        -0.1537
      2 C2          0.0021   -0.0041    0.0020 C.3       1 <0>        -0.1254
      3 C3         -1.4333   -0.5336    0.0129 C.3       1 <0>        -0.1132
      4 C4         -1.4126   -2.0635    0.0045 C.3       1 <0>        -0.0804
      5 C5         -2.8264   -2.5851    0.0152 C.ar      1 <0>        -0.0831
      6 C6         -3.4653   -2.8254    1.2172 C.ar      1 <0>        -0.1172
      7 C7         -4.7622   -3.3039    1.2270 C.ar      1 <0>        -0.0880
      8 C8         -5.4202   -3.5416    0.0348 C.ar      1 <0>        -0.0695
      9 C9         -4.7816   -3.3005   -1.1672 C.ar      1 <0>        -0.1058
     10 C10        -3.4862   -2.8179   -1.1770 C.ar      1 <0>        -0.1221
     11 C11        -6.8337   -4.0642    0.0455 C.3       1 <0>         0.0967
     12 H1         -7.1655   -4.1916    1.0759 H         1 <0>         0.0906
     13 C12        -7.7405   -3.0779   -0.6571 C.2       1 <0>        -0.2590
     14 C13        -8.2336   -3.3077   -1.8911 C.2       1 <0>         0.2131
     15 C14        -9.1233   -2.2907   -2.5691 C.3       1 <0>        -0.0903
     16 C15        -9.9375   -1.5354   -1.5174 C.3       1 <0>        -0.0522
     17 C16        -8.9626   -0.8523   -0.5524 C.3       1 <0>        -0.1594
     18 C17        -8.0543   -1.8937    0.0392 C.2       1 <0>         0.4025
     19 O1         -7.5803   -1.7105    1.1428 O.2       1 <0>        -0.4587
     20 C18       -10.8104   -0.4808   -2.2007 C.3       1 <0>        -0.1419
     21 C19       -10.8223   -2.5176   -0.7472 C.3       1 <0>        -0.1527
     22 N1         -7.9616   -4.4604   -2.5868 N.pl3     1 <0>        -0.6153
     23 C20        -7.4251   -5.5334   -1.9151 C.2       1 <0>         0.2293
     24 C21        -6.8828   -5.3903   -0.6641 C.2       1 <0>        -0.2712
     25 C22        -6.4124   -6.6417   -0.2059 C.2       1 <0>         0.4457
     26 O2         -5.8828   -6.8622    0.8662 O.2       1 <0>        -0.4210
     27 C23        -6.6829   -7.6342   -1.2689 C.ar      1 <0>        -0.1558
     28 C24        -7.3129   -6.9360   -2.3274 C.ar      1 <0>        -0.0595
     29 C25        -7.6969   -7.5943   -3.4848 C.ar      1 <0>        -0.0826
     30 C26        -7.4344   -8.9657   -3.5509 C.ar      1 <0>        -0.0987
     31 C27        -6.8239   -9.6402   -2.5205 C.ar      1 <0>        -0.1111
     32 C28        -6.4305   -8.9898   -1.3489 C.ar      1 <0>        -0.0427
     33 H2          1.0039    1.9031    0.0027 H         1 <0>         0.0537
     34 H3         -0.5459    1.8868   -0.8726 H         1 <0>         0.0530
     35 H4         -0.5289    1.8773    0.9072 H         1 <0>         0.0539
     36 H5          0.5123   -0.3556   -0.8948 H         1 <0>         0.0607
     37 H6          0.5293   -0.3651    0.8851 H         1 <0>         0.0616
     38 H7         -1.9435   -0.1821    0.9097 H         1 <0>         0.0633
     39 H8         -1.9605   -0.1726   -0.8702 H         1 <0>         0.0615
     40 H9         -0.9024   -2.4150   -0.8923 H         1 <0>         0.0693
     41 H10        -0.8854   -2.4246    0.8875 H         1 <0>         0.0709
     42 H11        -2.9512   -2.6397    2.1486 H         1 <0>         0.1196
     43 H12        -5.2612   -3.4923    2.1661 H         1 <0>         0.1213
     44 H13        -5.2956   -3.4865   -2.0987 H         1 <0>         0.1080
     45 H14        -2.9886   -2.6260   -2.1161 H         1 <0>         0.1160
     46 H15        -8.5077   -1.5849   -3.1268 H         1 <0>         0.1009
     47 H16        -9.8003   -2.8007   -3.2544 H         1 <0>         0.0916
     48 H17        -8.3694   -0.1152   -1.0935 H         1 <0>         0.1013
     49 H18        -9.5214   -0.3605    0.2439 H         1 <0>         0.0989
     50 H19       -11.4885   -0.9686   -2.9009 H         1 <0>         0.0617
     51 H20       -11.3889    0.0551   -1.4482 H         1 <0>         0.0653
     52 H21       -10.1756    0.2224   -2.7398 H         1 <0>         0.0612
     53 H22       -10.1960   -3.2609   -0.2539 H         1 <0>         0.0597
     54 H23       -11.4007   -1.9757    0.0011 H         1 <0>         0.0645
     55 H24       -11.5005   -3.0159   -1.4399 H         1 <0>         0.0610
     56 H25        -8.1456   -4.5167   -3.5376 H         1 <0>         0.4208
     57 H26        -8.1768   -7.0715   -4.2989 H         1 <0>         0.1385
     58 H27        -7.7200   -9.5116   -4.4379 H         1 <0>         0.1336
     59 H28        -6.6434  -10.7003   -2.6206 H         1 <0>         0.1350
     60 H29        -5.9511   -9.5241   -0.5420 H         1 <0>         0.1456
@<TRIPOS>BOND
     1    1    2 1
     2    1   33 1
     3    1   34 1
     4    1   35 1
     5    2    3 1
     6    2   36 1
     7    2   37 1
     8    3    4 1
     9    3   38 1
    10    3   39 1
    11    4    5 1
    12    4   40 1
    13    4   41 1
    14    5   10 ar
    15    5    6 ar
    16    6    7 ar
    17    6   42 1
    18    7    8 ar
    19    7   43 1
    20    8    9 ar
    21    8   11 1
    22    9   10 ar
    23    9   44 1
    24   10   45 1
    25   11   12 1
    26   11   24 1
    27   11   13 1
    28   13   18 1
    29   13   14 2
    30   14   15 1
    31   14   22 1
    32   15   16 1
    33   15   46 1
    34   15   47 1
    35   16   17 1
    36   16   20 1
    37   16   21 1
    38   17   18 1
    39   17   48 1
    40   17   49 1
    41   18   19 2
    42   20   50 1
    43   20   51 1
    44   20   52 1
    45   21   53 1
    46   21   54 1
    47   21   55 1
    48   22   23 1
    49   22   56 1
    50   23   28 1
    51   23   24 2
    52   24   25 1
    53   25   26 2
    54   25   27 1
    55   27   32 ar
    56   27   28 ar
    57   28   29 ar
    58   29   30 ar
    59   29   57 1
    60   30   31 ar
    61   30   58 1
    62   31   32 ar
    63   31   59 1
    64   32   60 1
@<TRIPOS>MOLECULE
ZINC08819032
   42    45     0     0     0
SMALL
USER_CHARGES
6-fluoro-3-methyl-2-[5-[3-(trifluoromethyl)phenyl]-2-furyl]-quinoline-4-carboxylic acid
@<TRIPOS>ATOM
      1 C1          3.1086    7.2652    1.4618 C.3       1 <0>        -0.1059
      2 C2          2.7177    8.5229    0.7293 C.ar      1 <0>        -0.1176
      3 C3          3.5591    9.6256    0.7334 C.ar      1 <0>        -0.0155
      4 C4          3.1157   10.8132    0.0006 C.ar      1 <0>        -0.0601
      5 C5          3.8965   11.9716   -0.0520 C.ar      1 <0>        -0.1059
      6 C6          3.4463   13.0579   -0.7472 C.ar      1 <0>         0.0897
      7 C7          2.2161   13.0249   -1.4049 C.ar      1 <0>        -0.1346
      8 C8          1.4329   11.9128   -1.3729 C.ar      1 <0>        -0.0650
      9 C9          1.8649   10.7742   -0.6666 C.ar      1 <0>         0.1201
     10 N1          1.1197    9.6691   -0.6233 N.ar      1 <0>        -0.4660
     11 C10         1.4970    8.5892    0.0350 C.ar      1 <0>         0.2315
     12 C11         0.6113    7.4108    0.0373 C.2       1 <0>         0.0567
     13 C12        -0.7522    7.4370    0.0502 C.2       1 <0>        -0.1598
     14 C13        -1.1866    6.1039    0.0467 C.2       1 <0>        -0.1782
     15 C14        -0.0702    5.3216    0.0318 C.2       1 <0>         0.0185
     16 O1          1.0109    6.1237    0.0321 O.3       1 <0>        -0.1514
     17 C15        -0.0502    3.8450    0.0232 C.ar      1 <0>        -0.0056
     18 C16        -1.2482    3.1270    0.0308 C.ar      1 <0>        -0.0688
     19 C17        -1.2222    1.7482    0.0174 C.ar      1 <0>        -0.1146
     20 C18        -0.0126    1.0758    0.0080 C.ar      1 <0>        -0.0718
     21 C19         1.1779    1.7806    0.0004 C.ar      1 <0>        -0.1771
     22 C20         1.1666    3.1601    0.0079 C.ar      1 <0>        -0.0540
     23 C21         2.4901    1.0397   -0.0166 C.3       1 <0>         0.5086
     24 F1          2.2476   -0.3381   -0.0221 F         1 <0>        -0.1779
     25 F2          3.2093    1.3912   -1.1640 F         1 <0>        -0.1739
     26 F3          3.2315    1.3782    1.1204 F         1 <0>        -0.1725
     27 F4          4.2007   14.1775   -0.7981 F         1 <0>        -0.1390
     28 C22         4.8513    9.6029    1.4493 C.2       1 <0>         0.5006
     29 O2          5.8569    9.2349    0.8759 O.co2     1 <0>        -0.6112
     30 H1          3.6662    6.6121    0.7904 H         1 <0>         0.0743
     31 H2          3.7314    7.5224    2.3186 H         1 <0>         0.0819
     32 H3          2.2111    6.7514    1.8061 H         1 <0>         0.0656
     33 H4          4.8501   12.0073    0.4538 H         1 <0>         0.1466
     34 H5          1.8802   13.8960   -1.9478 H         1 <0>         0.1409
     35 H6          0.4835   11.9034   -1.8876 H         1 <0>         0.1448
     36 H7         -1.3781    8.3171    0.0611 H         1 <0>         0.1592
     37 H8         -2.2110    5.7618    0.0538 H         1 <0>         0.1556
     38 H9         -2.1928    3.6505    0.0430 H         1 <0>         0.1399
     39 H10        -2.1478    1.1918    0.0184 H         1 <0>         0.1416
     40 H11         0.0021   -0.0041    0.0020 H         1 <0>         0.1411
     41 H12         2.0967    3.7091    0.0016 H         1 <0>         0.1425
     42 O3          4.9143    9.9904    2.7380 O.co2     1 <0>        -0.7333
@<TRIPOS>BOND
     1    1    2 1
     2    1   30 1
     3    1   31 1
     4    1   32 1
     5    2   11 ar
     6    2    3 ar
     7    3    4 ar
     8    3   28 1
     9    4    9 ar
    10    4    5 ar
    11    5    6 ar
    12    5   33 1
    13    6    7 ar
    14    6   27 1
    15    7    8 ar
    16    7   34 1
    17    8    9 ar
    18    8   35 1
    19    9   10 ar
    20   10   11 ar
    21   11   12 1
    22   12   16 1
    23   12   13 2
    24   13   14 1
    25   13   36 1
    26   14   15 2
    27   14   37 1
    28   15   16 1
    29   15   17 1
    30   17   22 ar
    31   17   18 ar
    32   18   19 ar
    33   18   38 1
    34   19   20 ar
    35   19   39 1
    36   20   21 ar
    37   20   40 1
    38   21   22 ar
    39   21   23 1
    40   22   41 1
    41   23   24 1
    42   23   25 1
    43   23   26 1
    44   28   29 2
    45   28   42 1
@<TRIPOS>MOLECULE
ZINC04876989
   24    24     0     0     0
SMALL
USER_CHARGES

@<TRIPOS>ATOM
      1 C1         -0.0167    1.3829    0.0096 C.2       1 <0>        -0.1277
      2 C2          1.2125    1.9966    0.0012 C.2       1 <0>        -0.1277
      3 C3          2.3323    1.2294   -0.0136 C.2       1 <0>        -0.2649
      4 S1          1.7514   -0.3470   -0.0165 S.3       1 <0>         0.2557
      5 C4          0.0021   -0.0041    0.0020 C.2       1 <0>        -0.1818
      6 C5         -1.1242   -0.9440    0.0084 C.2       1 <0>         0.4566
      7 C6         -0.8743   -2.3848   -0.0018 C.2       1 <0>        -0.4699
      8 C7         -1.9066   -3.2462    0.0040 C.2       1 <0>         0.2435
      9 O1         -3.1727   -2.7815    0.0194 O.3       1 <0>        -0.5943
     10 C8         -1.6490   -4.7310   -0.0066 C.3       1 <0>         0.2587
     11 C9         -2.2597   -5.3635    1.2456 C.3       1 <0>         0.2406
     12 C10        -1.9982   -6.8710    1.2348 C.3       1 <0>         0.4220
     13 F1         -0.6190   -7.1049    1.2196 F         1 <0>        -0.1499
     14 F2         -2.5567   -7.4493    2.3798 F         1 <0>        -0.1590
     15 F3         -2.5799   -7.4371    0.0954 F         1 <0>        -0.1492
     16 F4         -1.6781   -4.7974    2.3851 F         1 <0>        -0.1406
     17 F5         -3.6389   -5.1296    1.2608 F         1 <0>        -0.1267
     18 F6         -2.2306   -5.2971   -1.1460 F         1 <0>        -0.1629
     19 F7         -0.2698   -4.9649   -0.0218 F         1 <0>        -0.1662
     20 O2         -2.2687   -0.5239    0.0223 O.2       1 <0>        -0.4635
     21 Br1         4.1340    1.8036   -0.0277 Br        1 <0>         0.0205
     22 H1         -0.9390    1.9447    0.0258 H         1 <0>         0.1496
     23 H2          1.2868    3.0741    0.0059 H         1 <0>         0.1341
     24 H3          0.1395   -2.7569   -0.0141 H         1 <0>         0.1030
@<TRIPOS>BOND
     1    1    5 2
     2    1    2 1
     3    1   22 1
     4    2    3 2
     5    2   23 1
     6    3    4 1
     7    3   21 1
     8    4    5 1
     9    5    6 1
    10    6    7 1
    11    6   20 2
    12    7   24 1
    13    7    8 2
    14    8   10 1
    15    8    9 1
    16   10   11 1
    17   10   18 1
    18   10   19 1
    19   11   12 1
    20   11   16 1
    21   11   17 1
    22   12   13 1
    23   12   14 1
    24   12   15 1
@<TRIPOS>MOLECULE
ZINC35895168
   34    36     0     0     0
SMALL
USER_CHARGES

@<TRIPOS>ATOM
      1 C1         -0.0167    1.3782    0.0096 C.ar      1 <0>        -0.0640
      2 C2          1.1703    2.0860    0.0021 C.ar      1 <0>        -0.1572
      3 C3          2.3786    1.4101   -0.0131 C.ar      1 <0>         0.1078
      4 C4          2.3962    0.0256   -0.0207 C.ar      1 <0>        -0.1572
      5 C5          1.2079   -0.6800   -0.0132 C.ar      1 <0>        -0.0641
      6 C6          0.0021   -0.0041    0.0020 C.ar      1 <0>        -0.1064
      7 C7         -1.2930   -0.7747    0.0103 C.3       1 <0>         0.1002
      8 O1         -1.7152   -1.0110   -1.3343 O.3       1 <0>        -0.3042
      9 C8         -2.8742   -1.6987   -1.5049 C.ar      1 <0>         0.1442
     10 C9         -3.5923   -2.1314   -0.3972 C.ar      1 <0>        -0.2052
     11 C10        -4.7686   -2.8294   -0.5654 C.ar      1 <0>        -0.0512
     12 C11        -5.2392   -3.1014   -1.8512 C.ar      1 <0>        -0.0175
     13 C12        -4.5151   -2.6645   -2.9628 C.ar      1 <0>         0.0260
     14 C13        -3.3407   -1.9621   -2.7856 C.ar      1 <0>        -0.1447
     15 Cl1        -5.0947   -2.9994   -4.5646 Cl        1 <0>        -0.0010
     16 C14        -6.5004   -3.8503   -2.0358 C.2       1 <0>         0.0657
     17 N1         -7.0987   -4.2055   -3.1570 N.2       1 <0>        -0.3960
     18 C15        -8.2386   -4.8824   -3.0816 C.2       1 <0>        -0.0128
     19 C16        -8.7490   -5.1855   -1.8339 C.2       1 <0>        -0.2142
     20 S1         -7.6028   -4.5141   -0.8004 S.3       1 <0>         0.0686
     21 C17        -8.9433   -5.3002   -4.3003 C.2       1 <0>         0.5474
     22 O2         -8.4804   -5.0253   -5.3996 O.co2     1 <0>        -0.6616
     23 O3         -9.9935   -5.9233   -4.2169 O.co2     1 <0>        -0.6869
     24 F1          3.5396    2.1009   -0.0209 F         1 <0>        -0.1383
     25 H1         -0.9592    1.9052    0.0260 H         1 <0>         0.1369
     26 H2          1.1554    3.1659    0.0077 H         1 <0>         0.1388
     27 H3          3.3381   -0.5027   -0.0329 H         1 <0>         0.1388
     28 H4          1.2213   -1.7599   -0.0195 H         1 <0>         0.1369
     29 H5         -1.1453   -1.7280    0.5176 H         1 <0>         0.0768
     30 H6         -2.0553   -0.1984    0.5345 H         1 <0>         0.0767
     31 H7         -3.2279   -1.9208    0.5974 H         1 <0>         0.1374
     32 H8         -5.3255   -3.1659    0.2966 H         1 <0>         0.1376
     33 H9         -2.7817   -1.6204   -3.6442 H         1 <0>         0.1453
     34 H10        -9.6525   -5.7220   -1.5848 H         1 <0>         0.1975
@<TRIPOS>BOND
     1    1    6 ar
     2    1    2 ar
     3    1   25 1
     4    2    3 ar
     5    2   26 1
     6    3    4 ar
     7    3   24 1
     8    4    5 ar
     9    4   27 1
    10    5    6 ar
    11    5   28 1
    12    6    7 1
    13    7    8 1
    14    7   29 1
    15    7   30 1
    16    8    9 1
    17    9   14 ar
    18    9   10 ar
    19   10   11 ar
    20   10   31 1
    21   11   12 ar
    22   11   32 1
    23   12   13 ar
    24   12   16 1
    25   13   14 ar
    26   13   15 1
    27   14   33 1
    28   16   20 1
    29   16   17 2
    30   17   18 1
    31   18   19 2
    32   18   21 1
    33   19   20 1
    34   19   34 1
    35   21   22 2
    36   21   23 1
@<TRIPOS>MOLECULE
ZINC39372668
   55    58     0     0     0
SMALL
USER_CHARGES

@<TRIPOS>ATOM
      1 C1         -0.0554    1.3354   -0.0199 C.ar      1 <0>        -0.1285
      2 C2          0.0568    0.0919    0.5734 C.ar      1 <0>        -0.1203
      3 C3          1.2695   -0.5716    0.5637 C.ar      1 <0>        -0.1085
      4 C4          2.3698    0.0083   -0.0397 C.ar      1 <0>        -0.0596
      5 C5          2.2573    1.2514   -0.6338 C.ar      1 <0>        -0.1186
      6 C6          1.0450    1.9154   -0.6229 C.ar      1 <0>        -0.1221
      7 C7          3.6921   -0.7146   -0.0494 C.3       1 <0>        -0.0043
      8 H1          4.4998    0.0110   -0.1447 H         1 <0>         0.0774
      9 C8          3.8538   -1.4730    1.2354 C.2       1 <0>        -0.1681
     10 C9          3.6902   -2.7521    1.3481 C.2       1 <0>        -0.0946
     11 C10         3.3253   -3.6568    0.2077 C.3       1 <0>        -0.0093
     12 H2          4.2117   -4.1993   -0.1210 H         1 <0>         0.1055
     13 C11         2.7709   -2.8366   -0.9592 C.3       1 <0>        -0.1336
     14 H3          1.7897   -2.4417   -0.6959 H         1 <0>         0.0787
     15 C12         3.7341   -1.6793   -1.2365 C.3       1 <0>        -0.0765
     16 H4          3.4251   -1.1586   -2.1428 H         1 <0>         0.0946
     17 C13         5.1331   -2.2133   -1.4060 C.2       1 <0>         0.5511
     18 O1          5.6246   -2.9106   -0.5439 O.2       1 <0>        -0.5485
     19 N1          5.8380   -1.9162   -2.5156 N.am      1 <0>        -0.5975
     20 C14         5.3095   -0.9694   -3.5070 C.3       1 <0>         0.1160
     21 C15         6.3564    0.1213   -3.7544 C.3       1 <0>        -0.1361
     22 C16         7.6824   -0.5310   -4.1526 C.3       1 <0>        -0.1180
     23 C17         8.1759   -1.4246   -3.0125 C.3       1 <0>        -0.1315
     24 C18         7.1523   -2.5282   -2.7538 C.3       1 <0>         0.1133
     25 C19         2.6542   -3.7098   -2.1818 C.2       1 <0>         0.4952
     26 O2          1.9442   -4.7007   -2.1577 O.co2     1 <0>        -0.6830
     27 O3          3.2697   -3.4254   -3.1951 O.co2     1 <0>        -0.6935
     28 C20         2.2789   -4.6400    0.6652 C.ar      1 <0>        -0.0256
     29 C21         1.0591   -4.1850    1.1300 C.ar      1 <0>        -0.1170
     30 C22         0.0993   -5.0869    1.5496 C.ar      1 <0>        -0.1245
     31 C23         0.3589   -6.4438    1.5040 C.ar      1 <0>        -0.1375
     32 C24         1.5783   -6.8989    1.0383 C.ar      1 <0>        -0.1203
     33 C25         2.5366   -5.9972    0.6147 C.ar      1 <0>        -0.0943
     34 H5         -1.0040    1.8518   -0.0163 H         1 <0>         0.1165
     35 H6         -0.8028   -0.3611    1.0448 H         1 <0>         0.1188
     36 H7          1.3574   -1.5428    1.0279 H         1 <0>         0.1289
     37 H8          3.1170    1.7045   -1.1049 H         1 <0>         0.1188
     38 H9          0.9572    2.8868   -1.0867 H         1 <0>         0.1177
     39 H10         4.1239   -0.9171    2.1211 H         1 <0>         0.0983
     40 H11         3.8243   -3.1958    2.3236 H         1 <0>         0.0967
     41 H12         5.1017   -1.4946   -4.4393 H         1 <0>         0.0714
     42 H13         4.3931   -0.5170   -3.1280 H         1 <0>         0.0853
     43 H14         6.0173    0.7757   -4.5573 H         1 <0>         0.0705
     44 H15         6.4966    0.7041   -2.8440 H         1 <0>         0.0616
     45 H16         7.5359   -1.1336   -5.0490 H         1 <0>         0.0636
     46 H17         8.4224    0.2438   -4.3531 H         1 <0>         0.0586
     47 H18         9.1318   -1.8705   -3.2874 H         1 <0>         0.0684
     48 H19         8.2990   -0.8272   -2.1091 H         1 <0>         0.0621
     49 H20         7.4514   -3.1039   -1.8779 H         1 <0>         0.0868
     50 H21         7.0982   -3.1833   -3.6232 H         1 <0>         0.0610
     51 H22         0.8562   -3.1248    1.1656 H         1 <0>         0.1111
     52 H23        -0.8534   -4.7313    1.9135 H         1 <0>         0.1106
     53 H24        -0.3907   -7.1484    1.8325 H         1 <0>         0.1100
     54 H25         1.7814   -7.9591    1.0030 H         1 <0>         0.1115
     55 H26         3.4879   -6.3529    0.2474 H         1 <0>         0.1114
@<TRIPOS>BOND
     1    1    6 ar
     2    1    2 ar
     3    1   34 1
     4    2    3 ar
     5    2   35 1
     6    3    4 ar
     7    3   36 1
     8    4    5 ar
     9    4    7 1
    10    5    6 ar
    11    5   37 1
    12    6   38 1
    13    7    8 1
    14    7   15 1
    15    7    9 1
    16    9   10 2
    17    9   39 1
    18   10   11 1
    19   10   40 1
    20   11   12 1
    21   11   13 1
    22   11   28 1
    23   13   14 1
    24   13   15 1
    25   13   25 1
    26   15   16 1
    27   15   17 1
    28   17   18 2
    29   17   19 am
    30   19   24 1
    31   19   20 1
    32   20   21 1
    33   20   41 1
    34   20   42 1
    35   21   22 1
    36   21   43 1
    37   21   44 1
    38   22   23 1
    39   22   45 1
    40   22   46 1
    41   23   24 1
    42   23   47 1
    43   23   48 1
    44   24   49 1
    45   24   50 1
    46   25   26 2
    47   25   27 1
    48   28   33 ar
    49   28   29 ar
    50   29   30 ar
    51   29   51 1
    52   30   31 ar
    53   30   52 1
    54   31   32 ar
    55   31   53 1
    56   32   33 ar
    57   32   54 1
    58   33   55 1
@<TRIPOS>MOLECULE
ZINC06707041
   41    44     0     0     0
SMALL
USER_CHARGES

@<TRIPOS>ATOM
      1 C1         -0.0184    1.5028    0.0103 C.3       1 <0>        -0.1175
      2 C2          0.0021   -0.0041    0.0020 C.ar      1 <0>        -0.0473
      3 C3          0.0057   -0.6887   -1.1989 C.ar      1 <0>        -0.1467
      4 C4          0.0245   -2.0709   -1.2065 C.ar      1 <0>        -0.0166
      5 C5          0.0400   -2.7685   -0.0132 C.ar      1 <0>        -0.6263
      6 C6          0.0373   -2.0839    1.1877 C.ar      1 <0>        -0.0167
      7 C7          0.0229   -0.7016    1.1953 C.ar      1 <0>        -0.1467
      8 S1          0.0628   -4.5303   -0.0229 S.o2      1 <0>         2.6212
      9 O1         -0.4759   -4.9503    1.2232 O.2       1 <0>        -1.0056
     10 O2         -0.4897   -4.9367   -1.2674 O.2       1 <0>        -1.0056
     11 N1          1.6509   -4.9994   -0.0343 N.2       1 <0>        -1.0072
     12 C8          1.9752   -6.3462   -0.0434 C.2       1 <0>         0.4965
     13 N2          3.1651   -6.9182   -0.0476 N.2       1 <0>        -0.5840
     14 C9          3.2916   -8.2436   -0.0561 C.2       1 <0>         0.1402
     15 C10         2.1688   -9.0221   -0.0604 C.2       1 <0>        -0.2575
     16 S2          0.8937   -7.7690   -0.0445 S.3       1 <0>        -0.2196
     17 C11         4.6363   -8.8679   -0.0613 C.ar      1 <0>        -0.0047
     18 C12         4.7543  -10.2677   -0.0765 C.ar      1 <0>        -0.0932
     19 C13         5.9742  -10.8639   -0.0812 C.ar      1 <0>        -0.1183
     20 C14         7.1409  -10.0780   -0.0711 C.ar      1 <0>        -0.0549
     21 C15         8.4147  -10.6710   -0.0762 C.ar      1 <0>        -0.1082
     22 C16         9.5253   -9.8839   -0.0666 C.ar      1 <0>        -0.1243
     23 C17         9.4204   -8.4943   -0.0518 C.ar      1 <0>        -0.1278
     24 C18         8.2040   -7.8841   -0.0460 C.ar      1 <0>        -0.0977
     25 C19         7.0340   -8.6643   -0.0561 C.ar      1 <0>        -0.0524
     26 C20         5.7638   -8.0675   -0.0568 C.ar      1 <0>        -0.0756
     27 H1          1.0042    1.8801    0.0026 H         1 <0>         0.0744
     28 H2         -0.5455    1.8639   -0.8728 H         1 <0>         0.0682
     29 H3         -0.5286    1.8543    0.9071 H         1 <0>         0.0681
     30 H4         -0.0064   -0.1436   -2.1312 H         1 <0>         0.1278
     31 H5          0.0266   -2.6057   -2.1448 H         1 <0>         0.1385
     32 H6          0.0491   -2.6289    2.1200 H         1 <0>         0.1385
     33 H7          0.0245   -0.1667    2.1335 H         1 <0>         0.1278
     34 H8          2.0769  -10.0982   -0.0672 H         1 <0>         0.1759
     35 H9          3.8631  -10.8776   -0.0843 H         1 <0>         0.1260
     36 H10         6.0488  -11.9412   -0.0922 H         1 <0>         0.1249
     37 H11         8.5122  -11.7465   -0.0873 H         1 <0>         0.1219
     38 H12        10.5027  -10.3434   -0.0702 H         1 <0>         0.1169
     39 H13        10.3175   -7.8929   -0.0443 H         1 <0>         0.1183
     40 H14         8.1375   -6.8062   -0.0338 H         1 <0>         0.1266
     41 H15         5.6678   -6.9918   -0.0499 H         1 <0>         0.1424
@<TRIPOS>BOND
     1    1    2 1
     2    1   27 1
     3    1   28 1
     4    1   29 1
     5    2    7 ar
     6    2    3 ar
     7    3    4 ar
     8    3   30 1
     9    4    5 ar
    10    4   31 1
    11    5    6 ar
    12    5    8 1
    13    6    7 ar
    14    6   32 1
    15    7   33 1
    16    8    9 2
    17    8   10 2
    18    8   11 1
    19   11   12 1
    20   12   16 1
    21   12   13 2
    22   13   14 1
    23   14   15 2
    24   14   17 1
    25   15   16 1
    26   15   34 1
    27   17   26 ar
    28   17   18 ar
    29   18   19 ar
    30   18   35 1
    31   19   20 ar
    32   19   36 1
    33   20   25 ar
    34   20   21 ar
    35   21   22 ar
    36   21   37 1
    37   22   23 ar
    38   22   38 1
    39   23   24 ar
    40   23   39 1
    41   24   25 ar
    42   24   40 1
    43   25   26 ar
    44   26   41 1
@<TRIPOS>MOLECULE
ZINC01581042
   45    47     0     0     0
SMALL
USER_CHARGES
3-(2-chlorophenyl)-5-oxo-2,5-diphenyl-pentanoic acid
@<TRIPOS>ATOM
      1 C1          7.4935    2.1024    3.7175 C.ar      1 <0>        -0.1397
      2 C2          7.5949    2.7686    2.5105 C.ar      1 <0>        -0.1225
      3 C3          7.5879    2.0568    1.3254 C.ar      1 <0>        -0.1207
      4 C4          7.4803    0.6788    1.3475 C.ar      1 <0>        -0.0269
      5 C5          7.3741    0.0130    2.5543 C.ar      1 <0>        -0.1104
      6 C6          7.3855    0.7244    3.7395 C.ar      1 <0>        -0.1197
      7 C7          7.4727   -0.0971    0.0556 C.3       1 <0>        -0.0913
      8 H1          7.5601    0.5932   -0.7834 H         1 <0>         0.0752
      9 C8          6.1629   -0.8792   -0.0618 C.3       1 <0>        -0.0235
     10 H2          6.0754   -1.5695    0.7771 H         1 <0>         0.1006
     11 C9          4.9837    0.0956   -0.0454 C.3       1 <0>        -0.1536
     12 C10         3.6913   -0.6796   -0.0372 C.2       1 <0>         0.3860
     13 O1          3.7114   -1.8919   -0.0439 O.2       1 <0>        -0.4251
     14 C11         2.4048    0.0349   -0.0211 C.ar      1 <0>        -0.1583
     15 C12         1.2034   -0.6808   -0.0135 C.ar      1 <0>        -0.0646
     16 C13         0.0021   -0.0041    0.0020 C.ar      1 <0>        -0.1347
     17 C14        -0.0167    1.3798    0.0096 C.ar      1 <0>        -0.0965
     18 C15         1.1680    2.0953    0.0022 C.ar      1 <0>        -0.1337
     19 C16         2.3774    1.4332   -0.0129 C.ar      1 <0>        -0.0745
     20 C17         6.1552   -1.6551   -1.3537 C.ar      1 <0>        -0.0273
     21 C18         6.2558   -0.9890   -2.5608 C.ar      1 <0>        -0.1188
     22 C19         6.2482   -1.7005   -3.7458 C.ar      1 <0>        -0.1284
     23 C20         6.1411   -3.0788   -3.7246 C.ar      1 <0>        -0.1220
     24 C21         6.0410   -3.7458   -2.5184 C.ar      1 <0>        -0.1262
     25 C22         6.0533   -3.0345   -1.3316 C.ar      1 <0>         0.0369
     26 Cl1         5.9348   -3.8722    0.1842 Cl        1 <0>        -0.0597
     27 C23         8.6341   -1.0572    0.0394 C.2       1 <0>         0.4714
     28 O2          8.4348   -2.2450   -0.0563 O.co2     1 <0>        -0.6111
     29 H3          7.4991    2.6585    4.6433 H         1 <0>         0.1127
     30 H4          7.6793    3.8451    2.4933 H         1 <0>         0.1143
     31 H5          7.6667    2.5773    0.3824 H         1 <0>         0.1161
     32 H6          7.2856   -1.0632    2.5713 H         1 <0>         0.1188
     33 H7          7.3066    0.2040    4.6825 H         1 <0>         0.1146
     34 H8          5.0194    0.6757   -0.8592 H         1 <0>         0.0874
     35 H9          5.0395    0.7183    0.8475 H         1 <0>         0.1015
     36 H10         1.2164   -1.7607   -0.0202 H         1 <0>         0.1328
     37 H11        -0.9266   -0.5553    0.0079 H         1 <0>         0.1255
     38 H12        -0.9608    1.9042    0.0169 H         1 <0>         0.1234
     39 H13         1.1452    3.1751    0.0078 H         1 <0>         0.1267
     40 H14         3.3011    1.9929   -0.0190 H         1 <0>         0.1325
     41 H15         6.3398    0.0876   -2.5780 H         1 <0>         0.1194
     42 H16         6.3265   -1.1796   -4.6887 H         1 <0>         0.1176
     43 H17         6.1353   -3.6342   -4.6508 H         1 <0>         0.1198
     44 H18         5.9569   -4.8224   -2.5020 H         1 <0>         0.1224
     45 O3          9.8902   -0.5927    0.1312 O.co2     1 <0>        -0.7667
@<TRIPOS>BOND
     1    1    6 ar
     2    1    2 ar
     3    1   29 1
     4    2    3 ar
     5    2   30 1
     6    3    4 ar
     7    3   31 1
     8    4    5 ar
     9    4    7 1
    10    5    6 ar
    11    5   32 1
    12    6   33 1
    13    7    8 1
    14    7    9 1
    15    7   27 1
    16    9   10 1
    17    9   11 1
    18    9   20 1
    19   11   12 1
    20   11   34 1
    21   11   35 1
    22   12   13 2
    23   12   14 1
    24   14   19 ar
    25   14   15 ar
    26   15   16 ar
    27   15   36 1
    28   16   17 ar
    29   16   37 1
    30   17   18 ar
    31   17   38 1
    32   18   19 ar
    33   18   39 1
    34   19   40 1
    35   20   25 ar
    36   20   21 ar
    37   21   22 ar
    38   21   41 1
    39   22   23 ar
    40   22   42 1
    41   23   24 ar
    42   23   43 1
    43   24   25 ar
    44   24   44 1
    45   25   26 1
    46   27   28 2
    47   27   45 1
@<TRIPOS>MOLECULE
ZINC06192411
   34    36     0     0     0
SMALL
USER_CHARGES
5-(2-chlorophenyl)-4-[[2-(trifluoromethyl)phenyl]methyleneamino]-1,2,4-triazole-3-thiol
@<TRIPOS>ATOM
      1 C1         -6.6545    0.7764   -1.6745 C.ar      1 <0>        -0.0955
      2 C2         -7.1876    1.0019   -0.4174 C.ar      1 <0>        -0.1051
      3 C3         -6.4125    0.8161    0.7134 C.ar      1 <0>        -0.0802
      4 C4         -5.1012    0.4042    0.5949 C.ar      1 <0>        -0.1399
      5 C5         -4.5565    0.1747   -0.6705 C.ar      1 <0>        -0.0065
      6 C6         -5.3434    0.3699   -1.8083 C.ar      1 <0>        -0.0847
      7 C7         -3.1555   -0.2658   -0.8053 C.2       1 <0>         0.1443
      8 N1         -2.3971   -0.3469    0.2443 N.2       1 <0>        -0.2054
      9 N2         -1.0399   -0.6655    0.1050 N.pl3     1 <0>        -0.3580
     10 C8          0.0195    0.2131    0.0345 C.2       1 <0>         0.1514
     11 N3          1.1104   -0.5084   -0.0875 N.2       1 <0>        -0.2476
     12 N4          0.8122   -1.7581   -0.1028 N.2       1 <0>        -0.3309
     13 C9         -0.4883   -1.9149    0.0083 C.2       1 <0>         0.3802
     14 S1         -1.3584   -3.4469    0.0346 S.3       1 <0>        -0.7876
     15 C10        -0.0567    1.6877    0.0917 C.ar      1 <0>         0.0316
     16 C11        -0.9832    2.3731   -0.6963 C.ar      1 <0>        -0.0931
     17 C12        -1.0495    3.7496   -0.6379 C.ar      1 <0>        -0.1131
     18 C13        -0.2005    4.4520    0.1994 C.ar      1 <0>        -0.1089
     19 C14         0.7201    3.7803    0.9832 C.ar      1 <0>        -0.1113
     20 C15         0.7939    2.4020    0.9387 C.ar      1 <0>        -0.0076
     21 Cl1         1.9449    1.5597    1.9284 Cl        1 <0>        -0.0466
     22 C16        -4.2587    0.2018    1.8279 C.3       1 <0>         0.5087
     23 F1         -5.0338    0.4436    2.9672 F         1 <0>        -0.1899
     24 F2         -3.7838   -1.1138    1.8575 F         1 <0>        -0.1484
     25 F3         -3.1763    1.0879    1.8036 F         1 <0>        -0.1621
     26 H1         -7.2651    0.9238   -2.5530 H         1 <0>         0.1375
     27 H2         -8.2136    1.3241   -0.3187 H         1 <0>         0.1364
     28 H3         -6.8349    0.9942    1.6913 H         1 <0>         0.1417
     29 H4         -4.9273    0.1986   -2.7901 H         1 <0>         0.1418
     30 H5         -2.7535   -0.5256   -1.7957 H         1 <0>         0.1346
     31 H6         -1.6463    1.8267   -1.3506 H         1 <0>         0.1188
     32 H7         -1.7662    4.2806   -1.2469 H         1 <0>         0.1289
     33 H8         -0.2568    5.5298    0.2407 H         1 <0>         0.1311
     34 H9          1.3799    4.3346    1.6342 H         1 <0>         0.1352
@<TRIPOS>BOND
     1    1    6 ar
     2    1    2 ar
     3    1   26 1
     4    2    3 ar
     5    2   27 1
     6    3    4 ar
     7    3   28 1
     8    4    5 ar
     9    4   22 1
    10    5    6 ar
    11    5    7 1
    12    6   29 1
    13    7    8 2
    14    7   30 1
    15    8    9 1
    16    9   13 1
    17    9   10 1
    18   10   11 2
    19   10   15 1
    20   11   12 1
    21   12   13 2
    22   13   14 1
    23   15   20 ar
    24   15   16 ar
    25   16   17 ar
    26   16   31 1
    27   17   18 ar
    28   17   32 1
    29   18   19 ar
    30   18   33 1
    31   19   20 ar
    32   19   34 1
    33   20   21 1
    34   22   23 1
    35   22   24 1
    36   22   25 1
@<TRIPOS>MOLECULE
ZINC02147745
   45    48     0     0     0
SMALL
USER_CHARGES

@<TRIPOS>ATOM
      1 C1         -0.0184    1.5028    0.0103 C.3       1 <0>        -0.1133
      2 C2          0.0021   -0.0041    0.0020 C.ar      1 <0>        -0.0842
      3 C3          0.0056   -0.6866   -1.2056 C.ar      1 <0>        -0.0925
      4 C4          0.0243   -2.0660   -1.2302 C.ar      1 <0>        -0.0870
      5 C5          0.0396   -2.7782   -0.0412 C.ar      1 <0>         0.0023
      6 C6          0.0360   -2.0916    1.1839 C.ar      1 <0>         0.0304
      7 C7          0.0228   -0.6944    1.1931 C.ar      1 <0>        -0.0654
      8 N1          0.0527   -3.0349    2.1602 N.2       1 <0>        -0.4732
      9 C8          0.0658   -4.2200    1.6004 C.2       1 <0>         0.3000
     10 O1          0.0582   -4.0962    0.2592 O.3       1 <0>        -0.1949
     11 C9          0.0858   -5.5001    2.3313 C.ar      1 <0>        -0.0753
     12 C10         0.0863   -5.5074    3.7296 C.ar      1 <0>        -0.0285
     13 C11         0.1043   -6.6900    4.4098 C.ar      1 <0>        -0.1673
     14 C12         0.1224   -7.9045    3.7125 C.ar      1 <0>         0.1333
     15 C13         0.1226   -7.9089    2.3145 C.ar      1 <0>        -0.1390
     16 C14         0.0985   -6.7121    1.6241 C.ar      1 <0>         0.1645
     17 O2          0.0929   -6.7088    0.2665 O.3       1 <0>        -0.4823
     18 N2          0.1404   -9.0836    4.3977 N.2       1 <0>        -0.4882
     19 C15         0.9449   -9.2347    5.4197 C.2       1 <0>         0.2073
     20 C16         0.9635  -10.4558    6.1294 C.2       1 <0>        -0.1510
     21 C17         1.7942  -10.6118    7.1847 C.2       1 <0>        -0.0357
     22 C18         1.8135  -11.8834    7.9237 C.ar      1 <0>        -0.0786
     23 C19         0.9781  -12.9359    7.5343 C.ar      1 <0>        -0.0998
     24 C20         1.0022  -14.1246    8.2323 C.ar      1 <0>        -0.1221
     25 C21         1.8500  -14.2783    9.3156 C.ar      1 <0>        -0.1071
     26 C22         2.6796  -13.2419    9.7072 C.ar      1 <0>        -0.1233
     27 C23         2.6716  -12.0488    9.0162 C.ar      1 <0>        -0.0963
     28 H1          1.0042    1.8801    0.0026 H         1 <0>         0.0750
     29 H2         -0.5455    1.8639   -0.8728 H         1 <0>         0.0717
     30 H3         -0.5286    1.8543    0.9071 H         1 <0>         0.0703
     31 H4         -0.0066   -0.1341   -2.1335 H         1 <0>         0.1419
     32 H5          0.0266   -2.5901   -2.1745 H         1 <0>         0.1373
     33 H6          0.0243   -0.1582    2.1306 H         1 <0>         0.1365
     34 H7          0.0727   -4.5741    4.2729 H         1 <0>         0.1474
     35 H8          0.1049   -6.6896    5.4898 H         1 <0>         0.1369
     36 H9          0.1373   -8.8448    1.7758 H         1 <0>         0.1460
     37 H10         0.9746   -6.6965   -0.1305 H         1 <0>         0.3978
     38 H11         1.5942   -8.4256    5.7201 H         1 <0>         0.1075
     39 H12         0.3142  -11.2649    5.8291 H         1 <0>         0.1341
     40 H13         2.4435   -9.8028    7.4851 H         1 <0>         0.1305
     41 H14         0.3159  -12.8174    6.6894 H         1 <0>         0.1292
     42 H15         0.3577  -14.9379    7.9331 H         1 <0>         0.1263
     43 H16         1.8639  -15.2119    9.8584 H         1 <0>         0.1246
     44 H17         3.3379  -13.3695   10.5538 H         1 <0>         0.1263
     45 H18         3.3228  -11.2426    9.3202 H         1 <0>         0.1278
@<TRIPOS>BOND
     1    1    2 1
     2    1   28 1
     3    1   29 1
     4    1   30 1
     5    2    7 ar
     6    2    3 ar
     7    3    4 ar
     8    3   31 1
     9    4    5 ar
    10    4   32 1
    11    5   10 1
    12    5    6 ar
    13    6    7 ar
    14    6    8 1
    15    7   33 1
    16    8    9 2
    17    9   10 1
    18    9   11 1
    19   11   16 ar
    20   11   12 ar
    21   12   13 ar
    22   12   34 1
    23   13   14 ar
    24   13   35 1
    25   14   15 ar
    26   14   18 1
    27   15   16 ar
    28   15   36 1
    29   16   17 1
    30   17   37 1
    31   18   19 2
    32   19   20 1
    33   19   38 1
    34   20   21 2
    35   20   39 1
    36   21   22 1
    37   21   40 1
    38   22   27 ar
    39   22   23 ar
    40   23   24 ar
    41   23   41 1
    42   24   25 ar
    43   24   42 1
    44   25   26 ar
    45   25   43 1
    46   26   27 ar
    47   26   44 1
    48   27   45 1
@<TRIPOS>MOLECULE
ZINC00193313
   50    53     0     0     0
SMALL
USER_CHARGES

@<TRIPOS>ATOM
      1 C1         -0.2596    1.3729    1.0165 C.ar      1 <0>        -0.0965
      2 C2          0.8765    2.0857    0.6746 C.ar      1 <0>        -0.1387
      3 C3          2.0352    1.4207    0.3332 C.ar      1 <0>        -0.0675
      4 C4          2.0606    0.0224    0.3335 C.ar      1 <0>        -0.1606
      5 C5          0.9085   -0.6905    0.6806 C.ar      1 <0>        -0.0678
      6 C6         -0.2425   -0.0110    1.0191 C.ar      1 <0>        -0.1333
      7 C7          3.2930   -0.6951   -0.0301 C.2       1 <0>         0.3996
      8 O1          4.2899   -0.0739   -0.3309 O.2       1 <0>        -0.4485
      9 C8          3.3159   -2.2019   -0.0285 C.3       1 <0>        -0.1012
     10 H1          2.3449   -2.5761   -0.3529 H         1 <0>         0.0903
     11 C9          4.3830   -2.6856   -0.9884 C.3       1 <0>        -0.0125
     12 H2          4.4700   -1.9494   -1.7874 H         1 <0>         0.0554
     13 C10         3.9889   -4.0189   -1.6267 C.3       1 <0>        -0.1211
     14 C11         5.0797   -4.4400   -2.6153 C.3       1 <0>        -0.1079
     15 C12         6.4013   -4.6538   -1.8769 C.3       1 <0>        -0.1123
     16 C13         6.8639   -3.3348   -1.2478 C.3       1 <0>        -0.0887
     17 C14         5.7334   -2.8383   -0.3605 C.2       1 <0>        -0.1046
     18 C15         6.0097   -2.5847    0.8958 C.2       1 <0>        -0.0651
     19 C16         7.4515   -2.6846    1.3157 C.3       1 <0>        -0.0810
     20 C17         7.6225   -3.1115    2.7609 C.3       1 <0>        -0.1096
     21 C18         6.6421   -2.3771    3.6700 C.3       1 <0>        -0.1114
     22 C19         5.2153   -2.7364    3.2542 C.3       1 <0>        -0.1129
     23 C20         4.9362   -2.1686    1.8606 C.3       1 <0>        -0.0168
     24 H3          4.8939   -1.0806    1.9120 H         1 <0>         0.0482
     25 C21         3.5994   -2.6991    1.3867 C.3       1 <0>        -0.1433
     26 H4          2.8097   -2.3608    2.0577 H         1 <0>         0.0611
     27 C22         3.6582   -4.2049    1.3906 C.2       1 <0>         0.5101
     28 O2          4.7225   -4.7739    1.2172 O.co2     1 <0>        -0.6618
     29 O3          2.6415   -4.8543    1.5672 O.co2     1 <0>        -0.7086
     30 H5         -1.1629    1.8995    1.2870 H         1 <0>         0.1229
     31 H6          0.8554    3.1654    0.6749 H         1 <0>         0.1241
     32 H7          2.9208    1.9782    0.0660 H         1 <0>         0.1300
     33 H8          0.9202   -1.7705    0.6827 H         1 <0>         0.1397
     34 H9         -1.1330   -0.5601    1.2873 H         1 <0>         0.1279
     35 H10         3.8864   -4.7783   -0.8515 H         1 <0>         0.0981
     36 H11         3.0423   -3.9047   -2.1549 H         1 <0>         0.0450
     37 H12         4.7851   -5.3679   -3.1054 H         1 <0>         0.0519
     38 H13         5.2072   -3.6607   -3.3667 H         1 <0>         0.0473
     39 H14         6.2624   -5.3995   -1.0941 H         1 <0>         0.0747
     40 H15         7.1567   -5.0044   -2.5801 H         1 <0>         0.0449
     41 H16         7.7556   -3.5065   -0.6449 H         1 <0>         0.0771
     42 H17         7.0818   -2.6090   -2.0313 H         1 <0>         0.0521
     43 H18         7.9538   -3.4090    0.6745 H         1 <0>         0.0759
     44 H19         7.9245   -1.7121    1.1792 H         1 <0>         0.0507
     45 H20         7.4484   -4.1846    2.8398 H         1 <0>         0.0644
     46 H21         8.6409   -2.8909    3.0808 H         1 <0>         0.0472
     47 H22         6.8076   -2.6786    4.7043 H         1 <0>         0.0520
     48 H23         6.7904   -1.3016    3.5735 H         1 <0>         0.0509
     49 H24         5.1042   -3.8205    3.2342 H         1 <0>         0.0857
     50 H25         4.5102   -2.3110    3.9683 H         1 <0>         0.0446
@<TRIPOS>BOND
     1    1    6 ar
     2    1    2 ar
     3    1   30 1
     4    2    3 ar
     5    2   31 1
     6    3    4 ar
     7    3   32 1
     8    4    5 ar
     9    4    7 1
    10    5    6 ar
    11    5   33 1
    12    6   34 1
    13    7    8 2
    14    7    9 1
    15    9   10 1
    16    9   25 1
    17    9   11 1
    18   11   12 1
    19   11   17 1
    20   11   13 1
    21   13   14 1
    22   13   35 1
    23   13   36 1
    24   14   15 1
    25   14   37 1
    26   14   38 1
    27   15   16 1
    28   15   39 1
    29   15   40 1
    30   16   17 1
    31   16   41 1
    32   16   42 1
    33   17   18 2
    34   18   23 1
    35   18   19 1
    36   19   20 1
    37   19   43 1
    38   19   44 1
    39   20   21 1
    40   20   45 1
    41   20   46 1
    42   21   22 1
    43   21   47 1
    44   21   48 1
    45   22   23 1
    46   22   49 1
    47   22   50 1
    48   23   24 1
    49   23   25 1
    50   25   26 1
    51   25   27 1
    52   27   28 2
    53   27   29 1
@<TRIPOS>MOLECULE
ZINC59272170
   34    36     0     0     0
SMALL
USER_CHARGES

@<TRIPOS>ATOM
      1 C1         -1.4434    2.4332   -0.2317 C.ar      1 <0>        -0.0796
      2 C2         -0.5071    3.4498   -0.2345 C.ar      1 <0>        -0.1129
      3 C3          0.8317    3.1574   -0.0437 C.ar      1 <0>        -0.0253
      4 C4          1.2322    1.8473    0.1497 C.ar      1 <0>        -0.1144
      5 C5          0.2949    0.8315    0.1522 C.ar      1 <0>        -0.0813
      6 C6         -1.0426    1.1244   -0.0385 C.ar      1 <0>        -0.0903
      7 C7         -2.0641    0.0165   -0.0352 C.3       1 <0>         0.0988
      8 O1         -2.2304   -0.4821   -1.3641 O.3       1 <0>        -0.3001
      9 C8         -3.1216   -1.4908   -1.5366 C.ar      1 <0>         0.1561
     10 C9         -3.8274   -1.9889   -0.4534 C.ar      1 <0>        -0.2150
     11 C10        -4.7347   -3.0158   -0.6294 C.ar      1 <0>        -0.0570
     12 C11        -4.9477   -3.5577   -1.8884 C.ar      1 <0>        -0.0776
     13 C12        -4.2559   -3.0766   -2.9788 C.ar      1 <0>         0.0237
     14 C13        -3.3374   -2.0312   -2.8161 C.ar      1 <0>        -0.0859
     15 C14        -2.6018   -1.5088   -3.9714 C.2       1 <0>         0.0411
     16 C15        -3.2467   -1.3050   -5.1541 C.2       1 <0>        -0.1772
     17 C16        -4.6409   -1.3735   -5.4570 C.2       1 <0>         0.4796
     18 O2         -5.5441   -1.6788   -4.4981 O.3       1 <0>        -0.5661
     19 N1         -5.0185   -1.1356   -6.6726 N.2       1 <0>        -0.6207
     20 C17        -4.1372   -0.8300   -7.6401 C.2       1 <0>         0.3899
     21 S1         -2.5835   -0.8695   -6.7572 S.3       1 <0>        -0.1669
     22 S2         -4.4282   -0.4858   -9.2916 S.2       1 <0>        -0.5255
     23 Cl1        -6.0907   -4.8485   -2.0913 Cl        1 <0>        -0.0741
     24 Cl2         2.0084    4.4336   -0.0475 Cl        1 <0>        -0.0691
     25 H1         -2.4890    2.6619   -0.3762 H         1 <0>         0.1361
     26 H2         -0.8203    4.4723   -0.3858 H         1 <0>         0.1369
     27 H3          2.2772    1.6184    0.2983 H         1 <0>         0.1363
     28 H4          0.6075   -0.1912    0.3028 H         1 <0>         0.1356
     29 H5         -1.7241   -0.7893    0.6153 H         1 <0>         0.0762
     30 H6         -3.0162    0.4012    0.3303 H         1 <0>         0.0760
     31 H7         -3.6677   -1.5738    0.5308 H         1 <0>         0.1355
     32 H8         -5.2816   -3.3996    0.2191 H         1 <0>         0.1330
     33 H9         -4.4248   -3.5013   -3.9573 H         1 <0>         0.1415
     34 H10        -1.5487   -1.2854   -3.8851 H         1 <0>         0.1424
@<TRIPOS>BOND
     1    1    6 ar
     2    1    2 ar
     3    1   25 1
     4    2    3 ar
     5    2   26 1
     6    3    4 ar
     7    3   24 1
     8    4    5 ar
     9    4   27 1
    10    5    6 ar
    11    5   28 1
    12    6    7 1
    13    7    8 1
    14    7   29 1
    15    7   30 1
    16    8    9 1
    17    9   14 ar
    18    9   10 ar
    19   10   11 ar
    20   10   31 1
    21   11   12 ar
    22   11   32 1
    23   12   13 ar
    24   12   23 1
    25   13   14 ar
    26   13   33 1
    27   14   15 1
    28   15   16 2
    29   15   34 1
    30   16   21 1
    31   16   17 1
    32   17   18 1
    33   17   19 2
    34   19   20 1
    35   20   21 1
    36   20   22 2
@<TRIPOS>MOLECULE
ZINC64747841
   38    40     0     0     0
SMALL
USER_CHARGES

@<TRIPOS>ATOM
      1 C1         -0.0187    1.5258    0.0104 C.3       1 <0>        -0.1334
      2 C2          0.0021   -0.0041    0.0020 C.3       1 <0>        -0.0754
      3 C3          0.7421   -0.5109    1.2415 C.3       1 <0>        -0.1493
      4 S1         -1.6997   -0.6320    0.0149 S.3       1 <0>        -0.0119
      5 C4         -1.5117   -2.3765   -0.1453 C.2       1 <0>         0.0602
      6 N1         -0.4070   -3.0802   -0.2450 N.2       1 <0>        -0.4599
      7 C5         -0.4130   -4.4278   -0.3632 C.ar      1 <0>        -0.0424
      8 C6          0.6960   -5.2972   -0.4781 C.ar      1 <0>         0.0064
      9 C7          0.5184   -6.6509   -0.5917 C.ar      1 <0>        -0.2417
     10 C8         -0.7537   -7.2184   -0.5978 C.ar      1 <0>         0.3219
     11 C9         -1.8641   -6.3916   -0.4862 C.ar      1 <0>        -0.1488
     12 C10        -1.6888   -5.0353   -0.3727 C.ar      1 <0>        -0.0601
     13 S2         -2.7750   -3.6391   -0.2054 S.3       1 <0>        -0.0189
     14 N2         -0.9110   -8.6041   -0.7155 N.2       1 <0>        -1.0618
     15 S3          0.4201   -9.5802   -0.8486 S.o2      1 <0>         2.6035
     16 O1          1.0305   -9.2671   -2.0930 O.2       1 <0>        -1.0228
     17 O2          1.1168   -9.4874    0.3864 O.2       1 <0>        -1.0065
     18 C11        -0.1607  -11.2389   -0.9757 C.ar      1 <0>        -0.6180
     19 C12         0.0561  -11.9603   -2.1347 C.ar      1 <0>        -0.0205
     20 C13        -0.3994  -13.2615   -2.2346 C.ar      1 <0>        -0.1440
     21 C14        -1.0722  -13.8422   -1.1755 C.ar      1 <0>        -0.0700
     22 C15        -1.2896  -13.1220   -0.0163 C.ar      1 <0>        -0.1394
     23 C16        -0.8288  -11.8212    0.0864 C.ar      1 <0>         0.0588
     24 Cl1        -1.0957  -10.9180    1.5447 Cl        1 <0>        -0.0320
     25 H1          1.0039    1.9031    0.0027 H         1 <0>         0.0743
     26 H2         -0.5459    1.8868   -0.8726 H         1 <0>         0.0649
     27 H3         -0.5289    1.8773    0.9072 H         1 <0>         0.0648
     28 H4          0.5123   -0.3556   -0.8948 H         1 <0>         0.0971
     29 H5          0.7568   -1.6008    1.2356 H         1 <0>         0.0754
     30 H6          1.7647   -0.1336    1.2338 H         1 <0>         0.0609
     31 H7          0.2319   -0.1594    2.1383 H         1 <0>         0.0615
     32 H8          1.6959   -4.8889   -0.4766 H         1 <0>         0.1172
     33 H9          1.3833   -7.2919   -0.6788 H         1 <0>         0.1112
     34 H10        -2.8585   -6.8130   -0.4894 H         1 <0>         0.1278
     35 H11         0.5813  -11.5071   -2.9625 H         1 <0>         0.1468
     36 H12        -0.2301  -13.8246   -3.1405 H         1 <0>         0.1332
     37 H13        -1.4282  -14.8588   -1.2542 H         1 <0>         0.1339
     38 H14        -1.8154  -13.5756    0.8109 H         1 <0>         0.1371
@<TRIPOS>BOND
     1    1    2 1
     2    1   25 1
     3    1   26 1
     4    1   27 1
     5    2    3 1
     6    2    4 1
     7    2   28 1
     8    3   29 1
     9    3   30 1
    10    3   31 1
    11    4    5 1
    12    5   13 1
    13    5    6 2
    14    6    7 1
    15    7   12 ar
    16    7    8 ar
    17    8    9 ar
    18    8   32 1
    19    9   10 ar
    20    9   33 1
    21   10   11 ar
    22   10   14 1
    23   11   12 ar
    24   11   34 1
    25   12   13 1
    26   14   15 1
    27   15   16 2
    28   15   17 2
    29   15   18 1
    30   18   23 ar
    31   18   19 ar
    32   19   20 ar
    33   19   35 1
    34   20   21 ar
    35   20   36 1
    36   21   22 ar
    37   21   37 1
    38   22   23 ar
    39   22   38 1
    40   23   24 1
@<TRIPOS>MOLECULE
ZINC24648329
   57    60     0     0     0
SMALL
USER_CHARGES
2-[3-(m-tolyl)-5-thioxo-1H-1,2,4-triazol-4-yl]-N-[(S)-(4-propylphenyl)-(2-thienyl)methyl]acetamide
@<TRIPOS>ATOM
      1 C1        -12.5599    6.8895   -2.1064 C.3       1 <0>        -0.1541
      2 C2        -11.1247    6.7679   -1.5903 C.3       1 <0>        -0.1208
      3 C3        -11.0198    5.5623   -0.6541 C.3       1 <0>        -0.0816
      4 C4         -9.6062    5.4424   -0.1458 C.ar      1 <0>        -0.0787
      5 C5         -9.2337    6.0869    1.0190 C.ar      1 <0>        -0.1130
      6 C6         -7.9369    5.9774    1.4851 C.ar      1 <0>        -0.0961
      7 C7         -7.0127    5.2234    0.7864 C.ar      1 <0>        -0.0864
      8 C8         -7.3839    4.5832   -0.3812 C.ar      1 <0>        -0.1028
      9 C9         -8.6820    4.6884   -0.8445 C.ar      1 <0>        -0.1124
     10 C10        -5.5988    5.1044    1.2942 C.3       1 <0>         0.2762
     11 H1         -5.3660    5.9401    1.9705 H         1 <0>         0.1166
     12 C11        -5.4322    3.7903    2.0130 C.2       1 <0>        -0.1338
     13 C12        -5.4393    3.5391    3.3450 C.2       1 <0>        -0.1506
     14 C13        -5.2694    2.2390    3.7828 C.2       1 <0>        -0.1499
     15 C14        -5.0901    1.2554    2.8676 C.2       1 <0>        -0.1819
     16 S1         -5.1664    2.1618    1.3314 S.3       1 <0>         0.0425
     17 N1         -4.6676    5.1648    0.1649 N.am      1 <0>        -0.7401
     18 C15        -3.3997    5.5790    0.3584 C.2       1 <0>         0.5118
     19 O1         -3.0297    5.9017    1.4674 O.2       1 <0>        -0.5022
     20 C16        -2.4417    5.6411   -0.8033 C.3       1 <0>         0.0900
     21 N2         -1.1379    6.1185   -0.3361 N.pl3     1 <0>        -0.4838
     22 C17        -0.0795    5.3242    0.0586 C.2       1 <0>         0.2047
     23 N3          0.9090    6.0967    0.4125 N.2       1 <0>        -0.3058
     24 N4          0.5027    7.4272    0.2418 N.2       1 <0>        -0.3789
     25 C18        -0.7653    7.4085   -0.2180 C.2       1 <0>         0.4026
     26 S2         -1.7276    8.7761   -0.5849 S.3       1 <0>        -0.7706
     27 C19        -0.0710    3.8446    0.0818 C.ar      1 <0>         0.0147
     28 C20        -1.2731    3.1378    0.1301 C.ar      1 <0>        -0.1240
     29 C21        -1.2587    1.7584    0.1468 C.ar      1 <0>        -0.1085
     30 C22        -0.0551    1.0760    0.1267 C.ar      1 <0>        -0.1239
     31 C23         1.1399    1.7708    0.0784 C.ar      1 <0>        -0.0856
     32 C24         1.1387    3.1506    0.0560 C.ar      1 <0>        -0.0865
     33 C25         2.4460    1.0195    0.0506 C.3       1 <0>        -0.1137
     34 H2        -12.6353    7.7563   -2.7795 H         1 <0>         0.0553
     35 H3        -13.2450    7.0246   -1.2564 H         1 <0>         0.0537
     36 H4        -12.8312    5.9751   -2.6543 H         1 <0>         0.0538
     37 H5        -10.4396    6.6328   -2.4403 H         1 <0>         0.0646
     38 H6        -10.8533    7.6823   -1.0424 H         1 <0>         0.0644
     39 H7        -11.7048    5.6974    0.1959 H         1 <0>         0.0712
     40 H8        -11.2912    4.6479   -1.2020 H         1 <0>         0.0716
     41 H9         -9.9556    6.6763    1.5647 H         1 <0>         0.1228
     42 H10        -7.6457    6.4812    2.3949 H         1 <0>         0.1248
     43 H11        -6.6606    3.9977   -0.9294 H         1 <0>         0.1209
     44 H12        -8.9730    4.1852   -1.7547 H         1 <0>         0.1231
     45 H13        -5.5785    4.3422    4.0535 H         1 <0>         0.1312
     46 H14        -5.2748    2.0111    4.8384 H         1 <0>         0.1310
     47 H15        -4.9396    0.1978    3.0264 H         1 <0>         0.1827
     48 H16        -5.0032    4.8721   -0.8409 H         1 <0>         0.4179
     49 H17        -2.3298    4.6378   -1.2403 H         1 <0>         0.1123
     50 H18        -2.8334    6.3312   -1.5651 H         1 <0>         0.1281
     51 H19        -2.2129    3.6695    0.1507 H         1 <0>         0.1198
     52 H20        -2.1885    1.2102    0.1800 H         1 <0>         0.1222
     53 H21        -0.0490   -0.0039    0.1444 H         1 <0>         0.1198
     54 H22         2.0724    3.6921    0.0183 H         1 <0>         0.1326
     55 H23         3.2802    1.7356    0.0131 H         1 <0>         0.0671
     56 H24         2.4779    0.3724   -0.8384 H         1 <0>         0.0678
     57 H25         2.5332    0.4021    0.9568 H         1 <0>         0.0679
@<TRIPOS>BOND
     1    1    2 1
     2    1   34 1
     3    1   35 1
     4    1   36 1
     5    2    3 1
     6    2   37 1
     7    2   38 1
     8    3    4 1
     9    3   39 1
    10    3   40 1
    11    4    9 ar
    12    4    5 ar
    13    5    6 ar
    14    5   41 1
    15    6    7 ar
    16    6   42 1
    17    7    8 ar
    18    7   10 1
    19    8    9 ar
    20    8   43 1
    21    9   44 1
    22   10   11 1
    23   10   12 1
    24   10   17 1
    25   12   16 1
    26   12   13 2
    27   13   14 1
    28   13   45 1
    29   14   15 2
    30   14   46 1
    31   15   16 1
    32   15   47 1
    33   17   18 am
    34   17   48 1
    35   18   19 2
    36   18   20 1
    37   20   21 1
    38   20   49 1
    39   20   50 1
    40   21   25 1
    41   21   22 1
    42   22   23 2
    43   22   27 1
    44   23   24 1
    45   24   25 2
    46   25   26 1
    47   27   32 ar
    48   27   28 ar
    49   28   29 ar
    50   28   51 1
    51   29   30 ar
    52   29   52 1
    53   30   31 ar
    54   30   53 1
    55   31   32 ar
    56   31   33 1
    57   32   54 1
    58   33   55 1
    59   33   56 1
    60   33   57 1
@<TRIPOS>MOLECULE
ZINC39289295
   39    41     0     0     0
SMALL
USER_CHARGES

@<TRIPOS>ATOM
      1 C1          0.0845    1.5042    0.0048 C.ar      1 <0>        -0.1337
      2 C2          1.2774    2.2243    0.0354 C.ar      1 <0>        -0.1103
      3 C3          2.4803    1.5878    0.0253 C.ar      1 <0>        -0.1120
      4 C4          2.5238    0.1834   -0.0161 C.ar      1 <0>        -0.0110
      5 C5          3.7467   -0.5074   -0.0272 C.ar      1 <0>        -0.1547
      6 C6          3.7505   -1.8726   -0.0673 C.ar      1 <0>         0.1411
      7 C7          2.5521   -2.5928   -0.0981 C.ar      1 <0>        -0.1866
      8 C8          1.3520   -1.9535   -0.0888 C.ar      1 <0>        -0.0696
      9 C9          1.3105   -0.5488   -0.0468 C.ar      1 <0>        -0.0869
     10 C10         0.0879    0.1438   -0.0356 C.ar      1 <0>        -0.0945
     11 O1          4.9343   -2.5397   -0.0780 O.3       1 <0>        -0.3010
     12 C11         4.8742   -3.9669   -0.1204 C.3       1 <0>         0.0506
     13 C12         6.2940   -4.5371   -0.1264 C.3       1 <0>         0.1194
     14 N1          6.9552   -4.2145    1.1405 N.pl3     1 <0>        -0.7179
     15 C13         8.2593   -4.6302    1.3680 C.ar      1 <0>         0.2663
     16 C14         8.9014   -5.4509    0.4484 C.ar      1 <0>        -0.2255
     17 C15        10.1978   -5.8627    0.6763 C.ar      1 <0>        -0.0429
     18 C16        10.8716   -5.4633    1.8216 C.ar      1 <0>        -0.1695
     19 C17        10.2530   -4.6501    2.7452 C.ar      1 <0>        -0.0050
     20 C18         8.9398   -4.2191    2.5265 C.ar      1 <0>        -0.2139
     21 C19         8.2745   -3.3463    3.5052 C.2       1 <0>         0.5339
     22 O2          8.9037   -2.9023    4.4560 O.co2     1 <0>        -0.6798
     23 O3          7.0918   -3.0640    3.3686 O.co2     1 <0>        -0.6846
     24 Br1        12.6486   -6.0390    2.1162 Br        1 <0>        -0.0873
     25 H1         -0.8568    2.0336    0.0179 H         1 <0>         0.1197
     26 H2          1.2468    3.3034    0.0672 H         1 <0>         0.1212
     27 H3          3.3967    2.1588    0.0485 H         1 <0>         0.1279
     28 H4          4.6787    0.0378   -0.0044 H         1 <0>         0.1363
     29 H5          2.5802   -3.6719   -0.1300 H         1 <0>         0.1304
     30 H6          0.4344   -2.5225   -0.1135 H         1 <0>         0.1298
     31 H7         -0.8445   -0.4008   -0.0586 H         1 <0>         0.1238
     32 H8          4.3389   -4.3342    0.7551 H         1 <0>         0.0712
     33 H9          4.3524   -4.2818   -1.0240 H         1 <0>         0.0740
     34 H10         6.2504   -5.6194   -0.2482 H         1 <0>         0.0757
     35 H11         6.8572   -4.1010   -0.9515 H         1 <0>         0.0659
     36 H12         6.4813   -3.7102    1.8202 H         1 <0>         0.4276
     37 H13         8.3844   -5.7669   -0.4456 H         1 <0>         0.1196
     38 H14        10.6919   -6.5007   -0.0415 H         1 <0>         0.1193
     39 H15        10.7821   -4.3422    3.6350 H         1 <0>         0.1327
@<TRIPOS>BOND
     1    1   10 ar
     2    1    2 ar
     3    1   25 1
     4    2    3 ar
     5    2   26 1
     6    3    4 ar
     7    3   27 1
     8    4    9 ar
     9    4    5 ar
    10    5    6 ar
    11    5   28 1
    12    6    7 ar
    13    6   11 1
    14    7    8 ar
    15    7   29 1
    16    8    9 ar
    17    8   30 1
    18    9   10 ar
    19   10   31 1
    20   11   12 1
    21   12   13 1
    22   12   32 1
    23   12   33 1
    24   13   14 1
    25   13   34 1
    26   13   35 1
    27   14   15 1
    28   14   36 1
    29   15   20 ar
    30   15   16 ar
    31   16   17 ar
    32   16   37 1
    33   17   18 ar
    34   17   38 1
    35   18   19 ar
    36   18   24 1
    37   19   20 ar
    38   19   39 1
    39   20   21 1
    40   21   22 2
    41   21   23 1
@<TRIPOS>MOLECULE
ZINC39997720
   46    48     0     0     0
SMALL
USER_CHARGES

@<TRIPOS>ATOM
      1 C1          0.8397   -0.7116   -0.8200 C.3       1 <0>        -0.1487
      2 C2         -0.0703    0.1852    0.0217 C.3       1 <0>        -0.0934
      3 C3         -1.4670   -0.3808    0.0278 C.ar      1 <0>        -0.0455
      4 C4         -2.3693    0.0029   -0.9497 C.ar      1 <0>        -0.1204
      5 C5         -3.6485   -0.5101   -0.9520 C.ar      1 <0>        -0.0798
      6 C6         -4.0346   -1.4222    0.0385 C.ar      1 <0>        -0.1228
      7 C7         -3.1152   -1.8048    1.0235 C.ar      1 <0>        -0.0673
      8 C8         -1.8384   -1.2858    1.0075 C.ar      1 <0>        -0.1257
      9 C9         -5.3943   -1.9732    0.0444 C.2       1 <0>         0.0907
     10 C10        -6.0822   -2.1204   -1.1382 C.2       1 <0>        -0.0555
     11 C11        -5.4229   -1.8745   -2.3854 C.1       1 <0>         0.2625
     12 N1         -4.8999   -1.6795   -3.3748 N.1       1 <0>        -0.3853
     13 C12        -7.4939   -2.5299   -1.1213 C.2       1 <0>         0.4826
     14 N2         -8.1509   -2.6705   -2.2506 N.2       1 <0>        -0.4852
     15 C13        -9.4806   -2.9469   -2.2329 C.2       1 <0>         0.2306
     16 N3        -10.5254   -2.1265   -2.3099 N.2       1 <0>        -0.2700
     17 N4        -11.7109   -2.5560   -2.2785 N.2       1 <0>        -0.2706
     18 C14       -11.9862   -3.8495   -2.1671 C.2       1 <0>         0.0243
     19 S1        -10.3270   -4.5196   -2.1074 S.3       1 <0>         0.0046
     20 S2        -13.5423   -4.6737   -2.1031 S.3       1 <0>         0.0658
     21 C15       -14.7555   -3.3308   -2.2273 C.3       1 <0>        -0.0722
     22 C16       -16.1477   -3.9061   -2.1843 C.ar      1 <0>        -0.0978
     23 C17       -16.7772   -4.2797   -3.3571 C.ar      1 <0>        -0.0669
     24 C18       -18.0537   -4.8078   -3.3188 C.ar      1 <0>        -0.1528
     25 C19       -18.7022   -4.9627   -2.1053 C.ar      1 <0>         0.1123
     26 C20       -18.0707   -4.5882   -0.9314 C.ar      1 <0>        -0.1531
     27 C21       -16.7921   -4.0652   -0.9717 C.ar      1 <0>        -0.0668
     28 F1        -19.9503   -5.4784   -2.0668 F         1 <0>        -0.1351
     29 O1         -8.1170   -2.7623    0.0574 O.3       1 <0>        -0.4845
     30 H1          1.8499   -0.3022   -0.8244 H         1 <0>         0.0624
     31 H2          0.8561   -1.7147   -0.3939 H         1 <0>         0.0574
     32 H3          0.4615   -0.7568   -1.8413 H         1 <0>         0.0573
     33 H4          0.3079    0.2305    1.0429 H         1 <0>         0.0775
     34 H5         -0.0867    1.1884   -0.4045 H         1 <0>         0.0768
     35 H6         -2.0700    0.7066   -1.7124 H         1 <0>         0.1301
     36 H7         -4.3512   -0.2094   -1.7150 H         1 <0>         0.1299
     37 H8         -3.4047   -2.5072    1.7911 H         1 <0>         0.1368
     38 H9         -1.1269   -1.5830    1.7636 H         1 <0>         0.1322
     39 H10        -5.8553   -2.2634    0.9770 H         1 <0>         0.1694
     40 H11       -14.6213   -2.6416   -1.3936 H         1 <0>         0.1120
     41 H12       -14.6118   -2.7970   -3.1667 H         1 <0>         0.1113
     42 H13       -16.2713   -4.1584   -4.3035 H         1 <0>         0.1388
     43 H14       -18.5454   -5.0992   -4.2352 H         1 <0>         0.1413
     44 H15       -18.5757   -4.7083    0.0157 H         1 <0>         0.1414
     45 H16       -16.2977   -3.7772   -0.0557 H         1 <0>         0.1390
     46 H17        -9.0619   -2.9493   -0.0274 H         1 <0>         0.4122
@<TRIPOS>BOND
     1    1    2 1
     2    1   30 1
     3    1   31 1
     4    1   32 1
     5    2    3 1
     6    2   33 1
     7    2   34 1
     8    3    8 ar
     9    3    4 ar
    10    4    5 ar
    11    4   35 1
    12    5    6 ar
    13    5   36 1
    14    6    7 ar
    15    6    9 1
    16    7    8 ar
    17    7   37 1
    18    8   38 1
    19    9   10 2
    20    9   39 1
    21   10   11 1
    22   10   13 1
    23   11   12 3
    24   13   14 2
    25   13   29 1
    26   14   15 1
    27   15   19 1
    28   15   16 2
    29   16   17 1
    30   17   18 2
    31   18   19 1
    32   18   20 1
    33   20   21 1
    34   21   22 1
    35   21   40 1
    36   21   41 1
    37   22   27 ar
    38   22   23 ar
    39   23   24 ar
    40   23   42 1
    41   24   25 ar
    42   24   43 1
    43   25   26 ar
    44   25   28 1
    45   26   27 ar
    46   26   44 1
    47   27   45 1
    48   29   46 1
@<TRIPOS>MOLECULE
ZINC43252593
   55    58     0     0     0
SMALL
USER_CHARGES

@<TRIPOS>ATOM
      1 C1          0.3734    1.4779   -0.1254 C.3       1 <0>        -0.0765
      2 C2          0.1764   -0.0146   -0.0578 C.2       1 <0>         0.0694
      3 C3         -0.1246   -0.8383   -1.1248 C.2       1 <0>        -0.2167
      4 C4         -0.2192   -2.1952   -0.5783 C.2       1 <0>        -0.0902
      5 C5          0.0275   -2.0877    0.7523 C.2       1 <0>         0.0147
      6 N1          0.2698   -0.7710    1.0517 N.pl3     1 <0>        -0.4406
      7 C6          0.5816   -0.2604    2.3890 C.3       1 <0>         0.0986
      8 C7         -0.7182   -0.0270    3.1616 C.3       1 <0>        -0.1144
      9 C8         -0.3974    0.4983    4.5372 C.2       1 <0>        -0.1224
     10 C9         -0.4149    1.7801    4.7168 C.2       1 <0>        -0.1478
     11 C10        -0.1075    2.4502    6.0239 C.3       1 <0>        -0.0894
     12 C11        -0.1965    1.4386    7.1686 C.3       1 <0>        -0.1207
     13 C12         0.6201    0.1982    6.7844 C.3       1 <0>        -0.1188
     14 C13        -0.0835   -0.4976    5.6151 C.3       1 <0>        -0.0871
     15 C14         0.0392   -3.2075    1.7195 C.2       1 <0>         0.1709
     16 C15         0.1703   -2.9613    3.0627 C.2       1 <0>        -0.2522
     17 S1          0.1200   -4.6268    3.7114 S.3       1 <0>        -0.0209
     18 C16        -0.0683   -5.4701    2.1466 C.2       1 <0>         0.1747
     19 N2         -0.0819   -4.4538    1.2986 N.2       1 <0>        -0.4804
     20 C17        -0.1834   -6.9180    1.8727 C.ar      1 <0>        -0.0520
     21 C18        -0.3190   -7.3733    0.5600 C.ar      1 <0>        -0.0258
     22 C19        -0.4262   -8.7243    0.3086 C.ar      1 <0>        -0.1505
     23 C20        -0.3998   -9.6322    1.3592 C.ar      1 <0>         0.1445
     24 C21        -0.2654   -9.1832    2.6665 C.ar      1 <0>        -0.2098
     25 C22        -0.1510   -7.8342    2.9255 C.ar      1 <0>        -0.0496
     26 O1         -0.5061  -10.9629    1.1075 O.3       1 <0>        -0.3136
     27 C23        -0.4716  -11.8411    2.2342 C.3       1 <0>         0.0251
     28 C24        -0.3124   -0.4357   -2.5246 C.2       1 <0>         0.5485
     29 O2         -0.5777   -1.2771   -3.3729 O.co2     1 <0>        -0.6952
     30 O3         -0.2036    0.7410   -2.8428 O.co2     1 <0>        -0.6974
     31 H1          1.4229    1.6974   -0.3217 H         1 <0>         0.0642
     32 H2         -0.2400    1.8894   -0.9270 H         1 <0>         0.1055
     33 H3          0.0798    1.9265    0.8237 H         1 <0>         0.0442
     34 H4         -0.4412   -3.0997   -1.1250 H         1 <0>         0.1428
     35 H5          1.1952   -0.9872    2.9214 H         1 <0>         0.0865
     36 H6          1.1259    0.6798    2.3011 H         1 <0>         0.0919
     37 H7         -1.3318    0.6998    2.6292 H         1 <0>         0.0815
     38 H8         -1.2626   -0.9672    3.2495 H         1 <0>         0.0796
     39 H9         -0.6660    2.4062    3.8734 H         1 <0>         0.1063
     40 H10         0.8987    2.8677    5.9880 H         1 <0>         0.0732
     41 H11        -0.8239    3.2536    6.1953 H         1 <0>         0.0707
     42 H12         0.2115    1.8784    8.0787 H         1 <0>         0.0636
     43 H13        -1.2372    1.1570    7.3287 H         1 <0>         0.0638
     44 H14         1.6244    0.4987    6.4859 H         1 <0>         0.0655
     45 H15         0.6753   -0.4818    7.6345 H         1 <0>         0.0651
     46 H16        -1.0090   -0.9543    5.9657 H         1 <0>         0.0758
     47 H17         0.5693   -1.2721    5.2125 H         1 <0>         0.0671
     48 H18         0.2754   -2.0213    3.5841 H         1 <0>         0.2083
     49 H19        -0.3404   -6.6678   -0.2575 H         1 <0>         0.1489
     50 H20        -0.5312   -9.0773   -0.7067 H         1 <0>         0.1410
     51 H21        -0.2460   -9.8922    3.4809 H         1 <0>         0.1350
     52 H22        -0.0414   -7.4862    3.9420 H         1 <0>         0.1297
     53 H23         0.4739  -11.7176    2.7624 H         1 <0>         0.0571
     54 H24        -1.2966  -11.6032    2.9057 H         1 <0>         0.0572
     55 H25        -0.5657  -12.8724    1.8941 H         1 <0>         0.1009
@<TRIPOS>BOND
     1    1    2 1
     2    1   31 1
     3    1   32 1
     4    1   33 1
     5    2    6 1
     6    2    3 2
     7    3    4 1
     8    3   28 1
     9    4    5 2
    10    4   34 1
    11    5    6 1
    12    5   15 1
    13    6    7 1
    14    7    8 1
    15    7   35 1
    16    7   36 1
    17    8    9 1
    18    8   37 1
    19    8   38 1
    20    9   14 1
    21    9   10 2
    22   10   11 1
    23   10   39 1
    24   11   12 1
    25   11   40 1
    26   11   41 1
    27   12   13 1
    28   12   42 1
    29   12   43 1
    30   13   14 1
    31   13   44 1
    32   13   45 1
    33   14   46 1
    34   14   47 1
    35   15   19 1
    36   15   16 2
    37   16   17 1
    38   16   48 1
    39   17   18 1
    40   18   19 2
    41   18   20 1
    42   20   25 ar
    43   20   21 ar
    44   21   22 ar
    45   21   49 1
    46   22   23 ar
    47   22   50 1
    48   23   24 ar
    49   23   26 1
    50   24   25 ar
    51   24   51 1
    52   25   52 1
    53   26   27 1
    54   27   53 1
    55   27   54 1
    56   27   55 1
    57   28   29 2
    58   28   30 1
@<TRIPOS>MOLECULE
ZINC02276579
   57    59     0     0     0
SMALL
USER_CHARGES

@<TRIPOS>ATOM
      1 C1         -0.0187    1.5258    0.0104 C.3       1 <0>        -0.1554
      2 C2          0.0021   -0.0041    0.0020 C.3       1 <0>        -0.1251
      3 C3          0.7182   -0.4975   -1.2568 C.3       1 <0>        -0.1217
      4 C4          0.7390   -2.0273   -1.2652 C.3       1 <0>        -0.1135
      5 C5          1.4551   -2.5207   -2.5240 C.3       1 <0>        -0.1051
      6 C6          1.4758   -4.0506   -2.5324 C.3       1 <0>        -0.1240
      7 S1          2.3249   -4.6356   -4.0249 S.3       1 <0>        -0.0585
      8 C7          2.2661   -6.3913   -3.8882 C.2       1 <0>         0.1704
      9 C8          2.8266   -7.1669   -4.8547 C.2       1 <0>        -0.0992
     10 C9          2.7828   -8.6641   -4.7682 C.3       1 <0>         0.0894
     11 H1          3.7498   -9.0678   -5.0684 H         1 <0>         0.0970
     12 C10         2.4710   -9.1199   -3.3651 C.2       1 <0>        -0.2663
     13 C11         1.9316   -8.2719   -2.4636 C.2       1 <0>         0.2208
     14 N1          1.6583   -6.9758   -2.8014 N.pl3     1 <0>        -0.6362
     15 C12         1.6245   -8.7247   -1.0573 C.3       1 <0>        -0.0966
     16 C13         1.2731  -10.2140   -1.0620 C.3       1 <0>        -0.1116
     17 C14         2.4559  -10.9896   -1.6517 C.3       1 <0>        -0.1686
     18 C15         2.7565  -10.4536   -3.0246 C.2       1 <0>         0.4029
     19 O1          3.2550  -11.1873   -3.8551 O.2       1 <0>        -0.4641
     20 C16         1.7199   -9.1821   -5.7024 C.ar      1 <0>        -0.0408
     21 C17         0.4048   -8.7888   -5.5368 C.ar      1 <0>        -0.1262
     22 C18        -0.5740   -9.2611   -6.3912 C.ar      1 <0>        -0.1078
     23 C19        -0.2379  -10.1304   -7.4166 C.ar      1 <0>         0.0722
     24 C20         1.0858  -10.5259   -7.5836 C.ar      1 <0>         0.1053
     25 C21         2.0627  -10.0449   -6.7267 C.ar      1 <0>        -0.1727
     26 O2          1.4206  -11.3788   -8.5885 O.3       1 <0>        -0.3078
     27 C22         2.7983  -11.7415   -8.6996 C.3       1 <0>         0.0238
     28 O3         -1.1996  -10.5963   -8.2577 O.3       1 <0>        -0.4869
     29 C23         3.4685   -6.5444   -5.9732 C.1       1 <0>         0.2576
     30 N2          3.9777   -6.0506   -6.8605 N.1       1 <0>        -0.4058
     31 H2          1.0039    1.9031    0.0027 H         1 <0>         0.0542
     32 H3         -0.5459    1.8868   -0.8726 H         1 <0>         0.0542
     33 H4         -0.5289    1.8773    0.9072 H         1 <0>         0.0547
     34 H5          0.5293   -0.3651    0.8851 H         1 <0>         0.0611
     35 H6         -1.0205   -0.3814    0.0098 H         1 <0>         0.0612
     36 H7          0.1910   -0.1364   -2.1398 H         1 <0>         0.0642
     37 H8          1.7408   -0.1202   -1.2645 H         1 <0>         0.0640
     38 H9          1.2661   -2.3884   -0.3821 H         1 <0>         0.0661
     39 H10        -0.2836   -2.4046   -1.2575 H         1 <0>         0.0662
     40 H11         0.9279   -2.1597   -3.4071 H         1 <0>         0.0778
     41 H12         2.4777   -2.1435   -2.5317 H         1 <0>         0.0776
     42 H13         2.0030   -4.4117   -1.6494 H         1 <0>         0.0951
     43 H14         0.4533   -4.4279   -2.5247 H         1 <0>         0.0926
     44 H15         1.0272   -6.4650   -2.2707 H         1 <0>         0.4174
     45 H16         2.4965   -8.5596   -0.4244 H         1 <0>         0.1038
     46 H17         0.7812   -8.1541   -0.6683 H         1 <0>         0.0897
     47 H18         1.0869  -10.5497   -0.0419 H         1 <0>         0.0885
     48 H19         0.3856  -10.3790   -1.6730 H         1 <0>         0.0777
     49 H20         3.3294  -10.8646   -1.0120 H         1 <0>         0.1016
     50 H21         2.2007  -12.0470   -1.7207 H         1 <0>         0.0987
     51 H22         0.1416   -8.1113   -4.7380 H         1 <0>         0.1190
     52 H23        -1.6006   -8.9529   -6.2592 H         1 <0>         0.1342
     53 H24         3.0914  -10.3474   -6.8564 H         1 <0>         0.1335
     54 H25         2.9277  -12.4242   -9.5394 H         1 <0>         0.1015
     55 H26         3.3976  -10.8459   -8.8637 H         1 <0>         0.0548
     56 H27         3.1205  -12.2309   -7.7805 H         1 <0>         0.0592
     57 H28        -1.3405  -10.0437   -9.0386 H         1 <0>         0.3856
@<TRIPOS>BOND
     1    1    2 1
     2    1   31 1
     3    1   32 1
     4    1   33 1
     5    2    3 1
     6    2   34 1
     7    2   35 1
     8    3    4 1
     9    3   36 1
    10    3   37 1
    11    4    5 1
    12    4   38 1
    13    4   39 1
    14    5    6 1
    15    5   40 1
    16    5   41 1
    17    6    7 1
    18    6   42 1
    19    6   43 1
    20    7    8 1
    21    8   14 1
    22    8    9 2
    23    9   10 1
    24    9   29 1
    25   10   11 1
    26   10   12 1
    27   10   20 1
    28   12   18 1
    29   12   13 2
    30   13   14 1
    31   13   15 1
    32   14   44 1
    33   15   16 1
    34   15   45 1
    35   15   46 1
    36   16   17 1
    37   16   47 1
    38   16   48 1
    39   17   18 1
    40   17   49 1
    41   17   50 1
    42   18   19 2
    43   20   25 ar
    44   20   21 ar
    45   21   22 ar
    46   21   51 1
    47   22   23 ar
    48   22   52 1
    49   23   24 ar
    50   23   28 1
    51   24   25 ar
    52   24   26 1
    53   25   53 1
    54   26   27 1
    55   27   54 1
    56   27   55 1
    57   27   56 1
    58   28   57 1
    59   29   30 3
@<TRIPOS>MOLECULE
ZINC00084511
   27    28     0     0     0
SMALL
USER_CHARGES
3-allyl-6-bromo-2-methyl-quinoline-4-thiolate
@<TRIPOS>ATOM
      1 C1         -0.2578   -3.4429    0.3102 C.3       1 <0>        -0.1030
      2 C2         -0.8207   -3.0143   -1.0204 C.ar      1 <0>         0.1877
      3 C3         -1.3183   -1.7262   -1.1586 C.ar      1 <0>        -0.2002
      4 C4         -1.8446   -1.3201   -2.3758 C.ar      1 <0>         0.1860
      5 C5         -1.8395   -2.2511   -3.4432 C.ar      1 <0>        -0.1334
      6 C6         -2.3485   -1.9164   -4.7051 C.ar      1 <0>        -0.0073
      7 C7         -2.3320   -2.8424   -5.7058 C.ar      1 <0>        -0.1344
      8 C8         -1.8149   -4.1179   -5.4888 C.ar      1 <0>        -0.0775
      9 C9         -1.3131   -4.4741   -4.2746 C.ar      1 <0>        -0.1153
     10 C10        -1.3137   -3.5455   -3.2195 C.ar      1 <0>         0.1637
     11 N1         -0.8268   -3.8702   -2.0160 N.ar      1 <0>        -0.5399
     12 Br1        -3.0196   -2.3903   -7.4084 Br        1 <0>        -0.0753
     13 S1         -2.4926    0.3044   -2.5895 S.3       1 <0>        -0.8493
     14 C11        -1.2926   -0.7753    0.0102 C.3       1 <0>        -0.0318
     15 C12         0.0021   -0.0041    0.0020 C.2       1 <0>        -0.1366
     16 C13        -0.0157    1.3058    0.0092 C.2       1 <0>        -0.1853
     17 H1         -1.0524   -3.8748    0.9187 H         1 <0>         0.0726
     18 H2          0.5234   -4.1864    0.1517 H         1 <0>         0.0696
     19 H3          0.1627   -2.5776    0.8225 H         1 <0>         0.0745
     20 H4         -2.7513   -0.9304   -4.8841 H         1 <0>         0.1505
     21 H5         -1.8122   -4.8350   -6.2964 H         1 <0>         0.1251
     22 H6         -0.9159   -5.4669   -4.1225 H         1 <0>         0.1309
     23 H7         -1.3737   -1.3393    0.9394 H         1 <0>         0.0612
     24 H8         -2.1295   -0.0812   -0.0676 H         1 <0>         0.0922
     25 H9          0.9446   -0.5313   -0.0098 H         1 <0>         0.0933
     26 H10         0.9122    1.8585    0.0033 H         1 <0>         0.0832
     27 H11        -0.9582    1.8330    0.0166 H         1 <0>         0.0988
@<TRIPOS>BOND
     1    1    2 1
     2    1   17 1
     3    1   18 1
     4    1   19 1
     5    2   11 ar
     6    2    3 ar
     7    3    4 ar
     8    3   14 1
     9    4    5 ar
    10    4   13 1
    11    5   10 ar
    12    5    6 ar
    13    6    7 ar
    14    6   20 1
    15    7    8 ar
    16    7   12 1
    17    8    9 ar
    18    8   21 1
    19    9   10 ar
    20    9   22 1
    21   10   11 ar
    22   14   15 1
    23   14   23 1
    24   14   24 1
    25   15   16 2
    26   15   25 1
    27   16   26 1
    28   16   27 1
@<TRIPOS>MOLECULE
ZINC05927324
   25    27     0     0     0
SMALL
USER_CHARGES
4-(2-chlorophenyl)-5-(2-thienyl)-1,2,4-triazole-3-thiol
@<TRIPOS>ATOM
      1 C1          1.1737    1.7832    0.0004 C.ar      1 <0>        -0.1083
      2 C2          1.1565    3.1660    0.0076 C.ar      1 <0>        -0.1005
      3 C3         -0.0476    3.8452    0.0228 C.ar      1 <0>        -0.1088
      4 C4         -1.2384    3.1431    0.0309 C.ar      1 <0>        -0.0105
      5 C5         -1.2237    1.7541    0.0174 C.ar      1 <0>         0.1606
      6 C6         -0.0126    1.0758    0.0080 C.ar      1 <0>        -0.0835
      7 N1         -2.4296    1.0387    0.0192 N.pl3     1 <0>        -0.4556
      8 C7         -3.1419    0.6070    1.1185 C.2       1 <0>         0.1915
      9 N2         -4.2056   -0.0194    0.6650 N.2       1 <0>        -0.2526
     10 N3         -4.2075   -0.0094   -0.6198 N.2       1 <0>        -0.3347
     11 C8         -3.1503    0.6270   -1.0702 C.2       1 <0>         0.3979
     12 S1         -2.7353    0.8981   -2.7611 S.3       1 <0>        -0.7766
     13 C9         -2.7803    0.8090    2.5304 C.2       1 <0>        -0.0381
     14 C10        -3.5586    0.6654    3.6515 C.2       1 <0>        -0.1446
     15 C11        -2.9940    0.9093    4.8832 C.2       1 <0>        -0.1434
     16 C12        -1.6928    1.2926    4.9511 C.2       1 <0>        -0.1951
     17 S2         -1.2170    1.3123    3.2307 S.3       1 <0>         0.0579
     18 Cl1        -2.7503    3.9962    0.0499 Cl        1 <0>        -0.0521
     19 H1          2.1161    1.2557   -0.0114 H         1 <0>         0.1343
     20 H2          2.0856    3.7165    0.0010 H         1 <0>         0.1346
     21 H3         -0.0579    4.9251    0.0287 H         1 <0>         0.1373
     22 H4          0.0021   -0.0041    0.0020 H         1 <0>         0.1317
     23 H5         -4.5926    0.3644    3.5693 H         1 <0>         0.1411
     24 H6         -3.5797    0.8010    5.7841 H         1 <0>         0.1339
     25 H7         -1.0985    1.5257    5.8224 H         1 <0>         0.1837
@<TRIPOS>BOND
     1    1    6 ar
     2    1    2 ar
     3    1   19 1
     4    2    3 ar
     5    2   20 1
     6    3    4 ar
     7    3   21 1
     8    4    5 ar
     9    4   18 1
    10    5    6 ar
    11    5    7 1
    12    6   22 1
    13    7   11 1
    14    7    8 1
    15    8   13 1
    16    8    9 2
    17    9   10 1
    18   10   11 2
    19   11   12 1
    20   13   17 1
    21   13   14 2
    22   14   15 1
    23   14   23 1
    24   15   16 2
    25   15   24 1
    26   16   17 1
    27   16   25 1
@<TRIPOS>MOLECULE
ZINC37653648
   32    32     0     0     0
SMALL
USER_CHARGES

@<TRIPOS>ATOM
      1 C1         -0.0187    1.5258    0.0104 C.3       1 <0>        -0.1419
      2 C2          0.0021   -0.0041    0.0020 C.3       1 <0>        -0.0982
      3 C3          0.7182   -0.4975   -1.2568 C.3       1 <0>        -0.1413
      4 C4          0.7421   -0.5109    1.2415 C.3       1 <0>        -0.0880
      5 C5         -0.0416   -0.1236    2.4973 C.3       1 <0>        -0.1556
      6 H1         -0.2110    0.9531    2.5022 H         1 <0>         0.0628
      7 C6          0.7582   -0.5198    3.7400 C.3       1 <0>        -0.0630
      8 C7          0.0452   -0.0293    4.9737 C.ar      1 <0>        -0.0558
      9 C8          0.3189    1.2295    5.4757 C.ar      1 <0>        -0.1067
     10 C9         -0.3347    1.6799    6.6072 C.ar      1 <0>        -0.1211
     11 C10        -1.2626    0.8719    7.2375 C.ar      1 <0>        -0.1063
     12 C11        -1.5371   -0.3872    6.7354 C.ar      1 <0>        -0.0847
     13 C12        -0.8864   -0.8356    5.5997 C.ar      1 <0>        -0.0650
     14 Br1        -2.8057   -1.4933    7.5974 Br        1 <0>        -0.0651
     15 C13        -1.3671   -0.8407    2.5033 C.2       1 <0>         0.5055
     16 O1         -1.4009   -2.0594    2.4991 O.co2     1 <0>        -0.7003
     17 O2         -2.4056   -0.2020    2.5122 O.co2     1 <0>        -0.6986
     18 H2          1.0039    1.9031    0.0027 H         1 <0>         0.0443
     19 H3         -0.5459    1.8868   -0.8726 H         1 <0>         0.0446
     20 H4         -0.5289    1.8773    0.9072 H         1 <0>         0.0614
     21 H5         -1.0205   -0.3814    0.0098 H         1 <0>         0.0753
     22 H6          1.7408   -0.1202   -1.2645 H         1 <0>         0.0470
     23 H7          0.7330   -1.5874   -1.2628 H         1 <0>         0.0515
     24 H8          0.1910   -0.1364   -2.1398 H         1 <0>         0.0470
     25 H9          0.8346   -1.5958    1.1912 H         1 <0>         0.0633
     26 H10         1.7350   -0.0630    1.2804 H         1 <0>         0.0440
     27 H11         0.8513   -1.6050    3.7814 H         1 <0>         0.0758
     28 H12         1.7506   -0.0716    3.6915 H         1 <0>         0.0593
     29 H13         1.0440    1.8609    4.9838 H         1 <0>         0.1227
     30 H14        -0.1203    2.6632    6.9993 H         1 <0>         0.1248
     31 H15        -1.7728    1.2236    8.1220 H         1 <0>         0.1249
     32 H16        -1.1032   -1.8172    5.2051 H         1 <0>         0.1375
@<TRIPOS>BOND
     1    1    2 1
     2    1   18 1
     3    1   19 1
     4    1   20 1
     5    2    3 1
     6    2    4 1
     7    2   21 1
     8    3   22 1
     9    3   23 1
    10    3   24 1
    11    4    5 1
    12    4   25 1
    13    4   26 1
    14    5    6 1
    15    5    7 1
    16    5   15 1
    17    7    8 1
    18    7   27 1
    19    7   28 1
    20    8   13 ar
    21    8    9 ar
    22    9   10 ar
    23    9   29 1
    24   10   11 ar
    25   10   30 1
    26   11   12 ar
    27   11   31 1
    28   12   13 ar
    29   12   14 1
    30   13   32 1
    31   15   16 2
    32   15   17 1
@<TRIPOS>MOLECULE
ZINC41977434
   31    32     0     0     0
SMALL
USER_CHARGES

@<TRIPOS>ATOM
      1 C1          0.0765    1.7418   -0.1394 C.3       1 <0>        -0.1402
      2 C2          0.0153    0.2197    0.0029 C.3       1 <0>        -0.0923
      3 C3          0.9028   -0.2145    1.1409 C.ar      1 <0>        -0.0221
      4 C4          1.6244    0.7257    1.8523 C.ar      1 <0>        -0.1011
      5 C5          2.4385    0.3276    2.8960 C.ar      1 <0>        -0.1234
      6 C6          2.5314   -1.0110    3.2292 C.ar      1 <0>        -0.1185
      7 C7          1.8105   -1.9519    2.5187 C.ar      1 <0>        -0.1188
      8 C8          0.9910   -1.5533    1.4774 C.ar      1 <0>        -0.0262
      9 Cl1         0.0799   -2.7339    0.5886 Cl        1 <0>        -0.0277
     10 C9         -1.4040   -0.2019    0.2837 C.2       1 <0>         0.5108
     11 O1         -1.9457   -1.0311   -0.4273 O.co2     1 <0>        -0.6463
     12 O2         -2.0107    0.2861    1.2220 O.co2     1 <0>        -0.6763
     13 S1          0.5829   -0.5548   -1.5361 S.3       1 <0>        -0.0652
     14 C10        -0.5994   -0.0365   -2.7354 C.ar      1 <0>        -0.0845
     15 C11        -1.6641    0.7721   -2.3592 C.ar      1 <0>        -0.0761
     16 C12        -2.5893    1.1766   -3.3018 C.ar      1 <0>        -0.1181
     17 C13        -2.4573    0.7779   -4.6193 C.ar      1 <0>        -0.1140
     18 C14        -1.3991   -0.0277   -4.9991 C.ar      1 <0>        -0.1470
     19 C15        -0.4656   -0.4316   -4.0627 C.ar      1 <0>         0.0941
     20 F1          0.5716   -1.2133   -4.4348 F         1 <0>        -0.1392
     21 H1          1.1169    2.0584   -0.2125 H         1 <0>         0.0584
     22 H2         -0.4595    2.0445   -1.0390 H         1 <0>         0.0642
     23 H3         -0.3845    2.2071    0.7319 H         1 <0>         0.0753
     24 H4          1.5525    1.7715    1.5923 H         1 <0>         0.1332
     25 H5          3.0024    1.0625    3.4514 H         1 <0>         0.1242
     26 H6          3.1679   -1.3215    4.0446 H         1 <0>         0.1253
     27 H7          1.8834   -2.9975    2.7788 H         1 <0>         0.1286
     28 H8         -1.7688    1.0840   -1.3305 H         1 <0>         0.1454
     29 H9         -3.4174    1.8051   -3.0092 H         1 <0>         0.1234
     30 H10        -3.1825    1.0961   -5.3536 H         1 <0>         0.1248
     31 H11        -1.2994   -0.3374   -6.0289 H         1 <0>         0.1294
@<TRIPOS>BOND
     1    1    2 1
     2    1   21 1
     3    1   22 1
     4    1   23 1
     5    2    3 1
     6    2   10 1
     7    2   13 1
     8    3    8 ar
     9    3    4 ar
    10    4    5 ar
    11    4   24 1
    12    5    6 ar
    13    5   25 1
    14    6    7 ar
    15    6   26 1
    16    7    8 ar
    17    7   27 1
    18    8    9 1
    19   10   11 2
    20   10   12 1
    21   13   14 1
    22   14   19 ar
    23   14   15 ar
    24   15   16 ar
    25   15   28 1
    26   16   17 ar
    27   16   29 1
    28   17   18 ar
    29   17   30 1
    30   18   19 ar
    31   18   31 1
    32   19   20 1
@<TRIPOS>MOLECULE
ZINC57723619
   30    31     0     0     0
SMALL
USER_CHARGES

@<TRIPOS>ATOM
      1 C1         -0.0167    1.3778    0.0096 C.ar      1 <0>        -0.0991
      2 C2          1.1704    2.0860    0.0021 C.ar      1 <0>        -0.1581
      3 C3          2.3791    1.4110   -0.0130 C.ar      1 <0>         0.0985
      4 C4          2.3979    0.0265   -0.0206 C.ar      1 <0>        -0.0581
      5 C5          1.2093   -0.6804   -0.0130 C.ar      1 <0>         0.0268
      6 C6          0.0021   -0.0041    0.0020 C.ar      1 <0>        -0.1291
      7 Cl1         1.2317   -2.4162   -0.0225 Cl        1 <0>        -0.0412
      8 C7          3.7128   -0.7096   -0.0376 C.3       1 <0>        -0.1276
      9 H1          4.5318    0.0097   -0.0418 H         1 <0>         0.0783
     10 C8          3.8178   -1.5947    1.2060 C.3       1 <0>        -0.0678
     11 C9          5.1809   -2.2358    1.2526 C.ar      1 <0>        -0.0547
     12 C10         5.3908   -3.4580    0.6416 C.ar      1 <0>        -0.0261
     13 C11         6.6406   -4.0465    0.6840 C.ar      1 <0>        -0.1188
     14 C12         7.6818   -3.4121    1.3380 C.ar      1 <0>        -0.0386
     15 C13         7.4711   -2.1890    1.9492 C.ar      1 <0>        -0.1271
     16 C14         6.2222   -1.5988    1.9013 C.ar      1 <0>        -0.1108
     17 Cl2         9.2518   -4.1510    1.3921 Cl        1 <0>        -0.0958
     18 C15         3.7919   -1.5682   -1.2735 C.2       1 <0>         0.5065
     19 O1          2.8663   -1.5813   -2.0670 O.co2     1 <0>        -0.6786
     20 O2          4.7814   -2.2499   -1.4799 O.co2     1 <0>        -0.6771
     21 F1          3.5395    2.1027   -0.0208 F         1 <0>        -0.1374
     22 H2         -0.9593    1.9047    0.0259 H         1 <0>         0.1336
     23 H3          1.1550    3.1658    0.0076 H         1 <0>         0.1326
     24 H4         -0.9260   -0.5564    0.0079 H         1 <0>         0.1325
     25 H5          3.6719   -0.9862    2.0985 H         1 <0>         0.0577
     26 H6          3.0528   -2.3700    1.1658 H         1 <0>         0.0845
     27 H7          4.5778   -3.9533    0.1315 H         1 <0>         0.1282
     28 H8          6.8044   -5.0015    0.2070 H         1 <0>         0.1236
     29 H9          8.2834   -1.6935    2.4601 H         1 <0>         0.1221
     30 H10         6.0589   -0.6417    2.3743 H         1 <0>         0.1210
@<TRIPOS>BOND
     1    1    6 ar
     2    1    2 ar
     3    1   22 1
     4    2    3 ar
     5    2   23 1
     6    3    4 ar
     7    3   21 1
     8    4    5 ar
     9    4    8 1
    10    5    6 ar
    11    5    7 1
    12    6   24 1
    13    8    9 1
    14    8   10 1
    15    8   18 1
    16   10   11 1
    17   10   25 1
    18   10   26 1
    19   11   16 ar
    20   11   12 ar
    21   12   13 ar
    22   12   27 1
    23   13   14 ar
    24   13   28 1
    25   14   15 ar
    26   14   17 1
    27   15   16 ar
    28   15   29 1
    29   16   30 1
    30   18   19 2
    31   18   20 1
@<TRIPOS>MOLECULE
ZINC02224279
   48    51     0     0     0
SMALL
USER_CHARGES
isobutyl-dimethyl-methylsulfanyl-BLAHthiol
@<TRIPOS>ATOM
      1 C1          0.6400    7.7454   -1.4036 C.3       1 <0>        -0.1453
      2 C2          0.5665    6.2172   -1.4103 C.3       1 <0>        -0.0902
      3 C3          1.8026    5.6503   -2.1115 C.3       1 <0>        -0.1466
      4 C4          0.5161    5.7027    0.0297 C.3       1 <0>        -0.0680
      5 C5          0.3202    4.2085    0.0227 C.ar      1 <0>         0.1797
      6 C6         -0.9660    3.6821    0.0331 C.ar      1 <0>        -0.1962
      7 C7         -1.1474    2.3210    0.0198 C.ar      1 <0>         0.0436
      8 C8         -0.0179    1.4707    0.0101 C.ar      1 <0>        -0.1345
      9 C9          0.0021   -0.0041    0.0020 C.ar      1 <0>         0.1950
     10 C10         1.2683   -0.5987   -0.0109 C.ar      1 <0>        -0.2397
     11 C11         1.4120   -1.9805   -0.0181 C.ar      1 <0>         0.4010
     12 N1          0.3121   -2.7332   -0.0137 N.ar      1 <0>        -0.5285
     13 C12        -0.8832   -2.1569   -0.0024 C.ar      1 <0>         0.3141
     14 N2         -1.0530   -0.8511    0.0051 N.ar      1 <0>        -0.5272
     15 S1         -2.3116   -3.1884    0.0034 S.3       1 <0>        -0.0348
     16 C13        -1.5229   -4.8175   -0.0099 C.3       1 <0>        -0.1328
     17 S2          2.4032    0.7618   -0.0146 S.3       1 <0>         0.1709
     18 C14         1.2385    2.1026    0.0015 C.ar      1 <0>         0.1056
     19 N3          1.3700    3.4121    0.0063 N.ar      1 <0>        -0.4459
     20 C15        -2.5194    1.7027    0.0226 C.3       1 <0>        -0.1025
     21 C16        -3.5543    2.7467    0.4494 C.3       1 <0>         0.1091
     22 O1         -3.3340    3.9415   -0.3086 O.3       1 <0>        -0.3670
     23 C17        -2.1380    4.6295    0.0579 C.3       1 <0>         0.1132
     24 C18        -3.3958    3.0477    1.9410 C.3       1 <0>        -0.1791
     25 C19        -4.9629    2.2162    0.1748 C.3       1 <0>        -0.1349
     26 H1          1.5370    8.0637   -0.8724 H         1 <0>         0.0568
     27 H2          0.6760    8.1120   -2.4295 H         1 <0>         0.0564
     28 H3         -0.2406    8.1493   -0.9041 H         1 <0>         0.0549
     29 H4         -0.3305    5.8989   -1.9415 H         1 <0>         0.0716
     30 H5          2.6996    5.9686   -1.5803 H         1 <0>         0.0578
     31 H6          1.7503    4.5615   -2.1162 H         1 <0>         0.0599
     32 H7          1.8386    6.0168   -3.1373 H         1 <0>         0.0502
     33 H8         -0.3135    6.1754    0.5555 H         1 <0>         0.0831
     34 H9          1.4513    5.9442    0.5348 H         1 <0>         0.0888
     35 H10        -2.2895   -5.5924   -0.0078 H         1 <0>         0.0973
     36 H11        -0.9086   -4.9165   -0.9048 H         1 <0>         0.0894
     37 H12        -0.8956   -4.9247    0.8751 H         1 <0>         0.0893
     38 H13        -2.5405    0.8648    0.7195 H         1 <0>         0.1082
     39 H14        -2.7557    1.3462   -0.9800 H         1 <0>         0.0940
     40 H15        -2.2501    5.0393    1.0617 H         1 <0>         0.0665
     41 H16        -1.9596    5.4435   -0.6447 H         1 <0>         0.1058
     42 H17        -4.1223    3.8040    2.2383 H         1 <0>         0.0649
     43 H18        -3.5639    2.1367    2.5154 H         1 <0>         0.0700
     44 H19        -2.3881    3.4169    2.1321 H         1 <0>         0.0611
     45 H20        -5.0673    1.9953   -0.8874 H         1 <0>         0.0652
     46 H21        -5.1278    1.3069    0.7529 H         1 <0>         0.0744
     47 H22        -5.6971    2.9683    0.4634 H         1 <0>         0.0632
     48 S3          3.0110   -2.7206   -0.0322 S.3       1 <0>        -0.7881
@<TRIPOS>BOND
     1    1    2 1
     2    1   26 1
     3    1   27 1
     4    1   28 1
     5    2    3 1
     6    2    4 1
     7    2   29 1
     8    3   30 1
     9    3   31 1
    10    3   32 1
    11    4    5 1
    12    4   33 1
    13    4   34 1
    14    5   19 ar
    15    5    6 ar
    16    6   23 1
    17    6    7 ar
    18    7    8 ar
    19    7   20 1
    20    8   18 ar
    21    8    9 1
    22    9   14 ar
    23    9   10 ar
    24   10   11 ar
    25   10   17 1
    26   11   12 ar
    27   11   48 1
    28   12   13 ar
    29   13   14 ar
    30   13   15 1
    31   15   16 1
    32   16   35 1
    33   16   36 1
    34   16   37 1
    35   17   18 1
    36   18   19 ar
    37   20   21 1
    38   20   38 1
    39   20   39 1
    40   21   22 1
    41   21   24 1
    42   21   25 1
    43   22   23 1
    44   23   40 1
    45   23   41 1
    46   24   42 1
    47   24   43 1
    48   24   44 1
    49   25   45 1
    50   25   46 1
    51   25   47 1
@<TRIPOS>MOLECULE
ZINC16545317
   37    40     0     0     0
SMALL
USER_CHARGES
2-[(E)-[4-(1,3-benzoxazol-2-yl)phenyl]iminomethyl]-4-bromo-6-chloro-phenol
@<TRIPOS>ATOM
      1 C1          0.6121   -8.6874   -0.5470 C.ar      1 <0>        -0.1195
      2 C2         -0.3589   -8.7123    0.4435 C.ar      1 <0>        -0.1028
      3 C3         -0.8694   -7.5363    0.9532 C.ar      1 <0>        -0.0893
      4 C4         -0.4103   -6.3190    0.4748 C.ar      1 <0>         0.0001
      5 C5          0.5727   -6.2888   -0.5279 C.ar      1 <0>         0.0332
      6 C6          1.0800   -7.4881   -1.0347 C.ar      1 <0>        -0.0679
      7 N1          0.8207   -4.9805   -0.7918 N.2       1 <0>        -0.4880
      8 C7          0.0593   -4.2439   -0.0215 C.2       1 <0>         0.3221
      9 O1         -0.6983   -5.0309    0.7661 O.3       1 <0>        -0.2104
     10 C8          0.0393   -2.7679   -0.0134 C.ar      1 <0>        -0.0898
     11 C9         -0.8177   -2.0855    0.8549 C.ar      1 <0>        -0.0563
     12 C10        -0.8366   -0.7198    0.8627 C.ar      1 <0>        -0.1292
     13 C11         0.0021   -0.0041    0.0020 C.ar      1 <0>         0.1603
     14 C12         0.8556   -0.6873   -0.8703 C.ar      1 <0>        -0.1859
     15 C13         0.8776   -2.0530   -0.8738 C.ar      1 <0>        -0.0328
     16 N2         -0.0165    1.3619    0.0095 N.2       1 <0>        -0.4733
     17 C14         1.1046    2.0296    0.0024 C.2       1 <0>         0.2475
     18 C15         1.0846    3.4992    0.0105 C.ar      1 <0>        -0.2408
     19 C16         2.2843    4.2194    0.0029 C.ar      1 <0>         0.0090
     20 C17         2.2582    5.5975    0.0106 C.ar      1 <0>        -0.2182
     21 C18         1.0484    6.2743    0.0258 C.ar      1 <0>        -0.0207
     22 C19        -0.1441    5.5754    0.0330 C.ar      1 <0>        -0.1570
     23 C20        -0.1375    4.1884    0.0201 C.ar      1 <0>         0.3161
     24 O2         -1.3080    3.5010    0.0214 O.3       1 <0>        -0.6127
     25 Cl1        -1.6522    6.4349    0.0515 Cl        1 <0>        -0.0945
     26 Br1         3.8802    6.5696    0.0010 Br        1 <0>        -0.0940
     27 H1          1.0038   -9.6150   -0.9377 H         1 <0>         0.1356
     28 H2         -0.7181   -9.6594    0.8182 H         1 <0>         0.1385
     29 H3         -1.6252   -7.5641    1.7242 H         1 <0>         0.1342
     30 H4          1.8363   -7.4742   -1.8056 H         1 <0>         0.1350
     31 H5         -1.4652   -2.6382    1.5194 H         1 <0>         0.1297
     32 H6         -1.4987   -0.1926    1.5335 H         1 <0>         0.1363
     33 H7          1.4998   -0.1350   -1.5385 H         1 <0>         0.1293
     34 H8          1.5396   -2.5806   -1.5445 H         1 <0>         0.1342
     35 H9          2.0645    1.4926   -0.0096 H         1 <0>         0.0916
     36 H10         3.2291    3.6964   -0.0086 H         1 <0>         0.1149
     37 H11         1.0376    7.3542    0.0318 H         1 <0>         0.1154
@<TRIPOS>BOND
     1    1    6 ar
     2    1    2 ar
     3    1   27 1
     4    2    3 ar
     5    2   28 1
     6    3    4 ar
     7    3   29 1
     8    4    9 1
     9    4    5 ar
    10    5    6 ar
    11    5    7 1
    12    6   30 1
    13    7    8 2
    14    8    9 1
    15    8   10 1
    16   10   15 ar
    17   10   11 ar
    18   11   12 ar
    19   11   31 1
    20   12   13 ar
    21   12   32 1
    22   13   14 ar
    23   13   16 1
    24   14   15 ar
    25   14   33 1
    26   15   34 1
    27   16   17 2
    28   17   18 1
    29   17   35 1
    30   18   23 ar
    31   18   19 ar
    32   19   20 ar
    33   19   36 1
    34   20   21 ar
    35   20   26 1
    36   21   22 ar
    37   21   37 1
    38   22   23 ar
    39   22   25 1
    40   23   24 1
@<TRIPOS>MOLECULE
ZINC02557667
   42    45     0     0     0
SMALL
USER_CHARGES
5-bromo-2-hydroxy-1,3,6-triphenyl-pyridin-4-one
@<TRIPOS>ATOM
      1 C1         -7.3626    5.6605    0.1956 C.ar      1 <0>        -0.1524
      2 C2         -7.3309    4.3332    0.5842 C.ar      1 <0>        -0.1282
      3 C3         -6.1446    3.6292    0.5488 C.ar      1 <0>        -0.1119
      4 C4         -4.9763    4.2585    0.1202 C.ar      1 <0>         0.0848
      5 C5         -5.0136    5.5982   -0.2651 C.ar      1 <0>        -0.1067
      6 C6         -6.2068    6.2902   -0.2305 C.ar      1 <0>        -0.1287
      7 C7         -3.6993    3.5084    0.0804 C.2       1 <0>        -0.4152
      8 C8         -3.5372    2.4121   -0.8057 C.2       1 <0>         0.4198
      9 O1         -4.4478    2.0719   -1.5479 O.3       1 <0>        -0.5555
     10 C9         -2.3060    1.7206   -0.8156 C.2       1 <0>        -0.2410
     11 C10        -1.3046    2.1171    0.0190 C.2       1 <0>         0.2324
     12 N1         -1.4787    3.1748    0.8721 N.am      1 <0>        -0.4549
     13 C11        -2.6492    3.8680    0.9070 C.2       1 <0>         0.4796
     14 O2         -2.7884    4.9097    1.7562 O.2       1 <0>        -0.6611
     15 C12        -0.4313    3.5525    1.7208 C.ar      1 <0>         0.1491
     16 C13        -0.0015    2.6908    2.7216 C.ar      1 <0>        -0.1116
     17 C14         1.0356    3.0643    3.5537 C.ar      1 <0>        -0.1107
     18 C15         1.6386    4.2990    3.3983 C.ar      1 <0>        -0.1233
     19 C16         1.2091    5.1615    2.4064 C.ar      1 <0>        -0.1126
     20 C17         0.1764    4.7918    1.5672 C.ar      1 <0>        -0.0952
     21 C18        -0.0142    1.3966    0.0041 C.ar      1 <0>        -0.0679
     22 C19         1.1864    2.1088   -0.0032 C.ar      1 <0>        -0.0845
     23 C20         2.3873    1.4302   -0.0228 C.ar      1 <0>        -0.1252
     24 C21         2.4035    0.0466   -0.0352 C.ar      1 <0>        -0.1066
     25 C22         1.2171   -0.6654   -0.0282 C.ar      1 <0>        -0.1267
     26 C23         0.0094    0.0009   -0.0086 C.ar      1 <0>        -0.0761
     27 Br1        -2.0481    0.2540   -1.9811 Br        1 <0>        -0.0443
     28 H1         -8.2936    6.2073    0.2247 H         1 <0>         0.1060
     29 H2         -8.2365    3.8469    0.9156 H         1 <0>         0.1075
     30 H3         -6.1211    2.5930    0.8521 H         1 <0>         0.1086
     31 H4         -4.1110    6.0919   -0.5941 H         1 <0>         0.1078
     32 H5         -6.2379    7.3266   -0.5326 H         1 <0>         0.1070
     33 H6         -0.4749    1.7282    2.8463 H         1 <0>         0.1204
     34 H7          1.3732    2.3929    4.3294 H         1 <0>         0.1229
     35 H8          2.4468    4.5902    4.0528 H         1 <0>         0.1210
     36 H9          1.6821    6.1252    2.2876 H         1 <0>         0.1242
     37 H10        -0.1581    5.4656    0.7923 H         1 <0>         0.1246
     38 H11         1.1750    3.1887    0.0069 H         1 <0>         0.1236
     39 H12         3.3169    1.9799   -0.0285 H         1 <0>         0.1221
     40 H13         3.3464   -0.4798   -0.0503 H         1 <0>         0.1203
     41 H14         1.2367   -1.7451   -0.0383 H         1 <0>         0.1241
     42 H15        -0.9160   -0.5559   -0.0026 H         1 <0>         0.1343
@<TRIPOS>BOND
     1    1    6 ar
     2    1    2 ar
     3    1   28 1
     4    2    3 ar
     5    2   29 1
     6    3    4 ar
     7    3   30 1
     8    4    5 ar
     9    4    7 1
    10    5    6 ar
    11    5   31 1
    12    6   32 1
    13    7    8 2
    14    7   13 1
    15    8   10 1
    16    8    9 1
    17   10   11 2
    18   10   27 1
    19   11   12 1
    20   11   21 1
    21   12   15 1
    22   12   13 am
    23   13   14 2
    24   15   20 ar
    25   15   16 ar
    26   16   17 ar
    27   16   33 1
    28   17   18 ar
    29   17   34 1
    30   18   19 ar
    31   18   35 1
    32   19   20 ar
    33   19   36 1
    34   20   37 1
    35   21   26 ar
    36   21   22 ar
    37   22   23 ar
    38   22   38 1
    39   23   24 ar
    40   23   39 1
    41   24   25 ar
    42   24   40 1
    43   25   26 ar
    44   25   41 1
    45   26   42 1
@<TRIPOS>MOLECULE
ZINC39336582
   53    56     0     0     0
SMALL
USER_CHARGES

@<TRIPOS>ATOM
      1 C1         -0.0127    1.0858    0.0080 C.3       1 <0>        -0.1324
      2 C2         -0.7527    1.5927   -1.2315 C.3       1 <0>        -0.0140
      3 C3         -0.7734    3.1225   -1.2231 C.3       1 <0>        -0.1398
      4 C4         -0.0366    1.0992   -2.4903 C.3       1 <0>        -0.1415
      5 C5         -2.1665    1.0710   -1.2208 C.2       1 <0>         0.1853
      6 C6         -3.1320    1.4229   -2.3440 C.3       1 <0>        -0.0740
      7 S1         -4.4640    0.1852   -2.0167 S.3       1 <0>        -0.3386
      8 C7         -3.9579   -0.1718   -0.2768 C.3       1 <0>         0.1892
      9 H1         -4.5750    0.3785    0.4335 H         1 <0>         0.1240
     10 N1         -2.5698    0.3331   -0.2876 N.2       1 <0>        -0.4875
     11 C8         -3.9942   -1.6512    0.0080 C.ar      1 <0>        -0.0880
     12 C9         -2.8781   -2.4296   -0.2358 C.ar      1 <0>        -0.0803
     13 C10        -2.9114   -3.7866    0.0255 C.ar      1 <0>        -0.0917
     14 C11        -4.0606   -4.3652    0.5309 C.ar      1 <0>        -0.0472
     15 C12        -5.1764   -3.5867    0.7755 C.ar      1 <0>        -0.1206
     16 C13        -5.1417   -2.2289    0.5183 C.ar      1 <0>        -0.1067
     17 C14        -4.0972   -5.8448    0.8147 C.3       1 <0>        -0.0129
     18 C15        -3.6499   -6.0956    2.2317 C.ar      1 <0>        -0.1915
     19 C16        -4.5705   -6.3248    3.2398 C.ar      1 <0>        -0.0773
     20 C17        -4.0852   -6.5503    4.5317 C.ar      1 <0>        -0.0520
     21 N2         -2.7778   -6.5392    4.7551 N.ar      1 <0>        -0.1856
     22 N3         -1.9273   -6.3263    3.8177 N.ar      1 <0>        -0.3517
     23 C18        -2.2970   -6.1095    2.5652 C.ar      1 <0>         0.3741
     24 O1         -1.3595   -5.8953    1.6079 O.3       1 <0>        -0.6790
     25 C19        -5.0290   -6.8005    5.6481 C.ar      1 <0>         0.0098
     26 C20        -6.4025   -6.8173    5.4118 C.ar      1 <0>        -0.1010
     27 C21        -7.2768   -7.0503    6.4533 C.ar      1 <0>        -0.1487
     28 C22        -6.7912   -7.2676    7.7327 C.ar      1 <0>         0.0704
     29 C23        -5.4266   -7.2513    7.9723 C.ar      1 <0>        -0.1493
     30 C24        -4.5448   -7.0252    6.9356 C.ar      1 <0>        -0.0790
     31 F1         -7.6509   -7.4954    8.7496 F         1 <0>        -0.1492
     32 H2          0.0021   -0.0041    0.0020 H         1 <0>         0.0653
     33 H3          1.0099    1.4631    0.0003 H         1 <0>         0.0573
     34 H4         -0.5229    1.4373    0.9048 H         1 <0>         0.0614
     35 H5          0.2491    3.4998   -1.2308 H         1 <0>         0.0686
     36 H6         -1.3006    3.4836   -2.1062 H         1 <0>         0.0592
     37 H7         -1.2836    3.4740   -0.3263 H         1 <0>         0.0588
     38 H8         -0.0218    0.0093   -2.4963 H         1 <0>         0.0626
     39 H9         -0.5637    1.4603   -3.3734 H         1 <0>         0.0591
     40 H10         0.9860    1.4765   -2.4981 H         1 <0>         0.0689
     41 H11        -3.5043    2.4422   -2.2418 H         1 <0>         0.1129
     42 H12        -2.6766    1.2659   -3.3218 H         1 <0>         0.1217
     43 H13        -1.9803   -1.9775   -0.6306 H         1 <0>         0.1169
     44 H14        -2.0397   -4.3948   -0.1656 H         1 <0>         0.1393
     45 H15        -6.0744   -4.0388    1.1700 H         1 <0>         0.1198
     46 H16        -6.0122   -1.6200    0.7129 H         1 <0>         0.1162
     47 H17        -5.1141   -6.2148    0.6838 H         1 <0>         0.0652
     48 H18        -3.4304   -6.3635    0.1260 H         1 <0>         0.0825
     49 H19        -5.6309   -6.3290    3.0349 H         1 <0>         0.1172
     50 H20        -6.7819   -6.6477    4.4149 H         1 <0>         0.1303
     51 H21        -8.3412   -7.0631    6.2711 H         1 <0>         0.1298
     52 H22        -5.0525   -7.4204    8.9712 H         1 <0>         0.1310
     53 H23        -3.4811   -7.0178    7.1223 H         1 <0>         0.1426
@<TRIPOS>BOND
     1    1   32 1
     2    1   33 1
     3    1   34 1
     4    1    2 1
     5    2    5 1
     6    2    3 1
     7    2    4 1
     8    3   35 1
     9    3   36 1
    10    3   37 1
    11    4   38 1
    12    4   39 1
    13    4   40 1
    14    5    6 1
    15    5   10 2
    16    6    7 1
    17    6   41 1
    18    6   42 1
    19    7    8 1
    20    8    9 1
    21    8   11 1
    22    8   10 1
    23   11   16 ar
    24   11   12 ar
    25   12   13 ar
    26   12   43 1
    27   13   14 ar
    28   13   44 1
    29   14   15 ar
    30   14   17 1
    31   15   16 ar
    32   15   45 1
    33   16   46 1
    34   17   47 1
    35   17   48 1
    36   17   18 1
    37   18   23 ar
    38   18   19 ar
    39   19   49 1
    40   19   20 ar
    41   20   25 1
    42   20   21 ar
    43   21   22 ar
    44   22   23 ar
    45   23   24 1
    46   25   30 ar
    47   25   26 ar
    48   26   27 ar
    49   26   50 1
    50   27   28 ar
    51   27   51 1
    52   28   29 ar
    53   28   31 1
    54   29   30 ar
    55   29   52 1
    56   30   53 1
@<TRIPOS>MOLECULE
ZINC59370575
   45    48     0     0     0
SMALL
USER_CHARGES

@<TRIPOS>ATOM
      1 C1         -0.4842    1.4622   -0.4436 C.3       1 <0>        -0.1070
      2 C2         -0.3423   -0.0340   -0.3335 C.ar      1 <0>        -0.0988
      3 C3         -0.1787   -0.7985   -1.4735 C.ar      1 <0>        -0.1327
      4 C4         -0.0486   -2.1710   -1.3726 C.ar      1 <0>        -0.1109
      5 C5         -0.0815   -2.7790   -0.1315 C.ar      1 <0>        -0.0564
      6 C6         -0.2441   -2.0144    1.0086 C.ar      1 <0>        -0.0649
      7 C7         -0.3700   -0.6414    0.9079 C.ar      1 <0>        -0.1318
      8 C8          0.0595   -4.2753   -0.0215 C.3       1 <0>         0.2038
      9 C9          1.4447   -4.6825   -0.4531 C.ar      1 <0>        -0.0562
     10 C10         2.3229   -5.2265    0.4655 C.ar      1 <0>        -0.0648
     11 C11         3.5936   -5.6000    0.0696 C.ar      1 <0>        -0.1317
     12 C12         3.9860   -5.4299   -1.2450 C.ar      1 <0>        -0.0988
     13 C13         3.1075   -4.8867   -2.1637 C.ar      1 <0>        -0.1324
     14 C14         1.8353   -4.5172   -1.7688 C.ar      1 <0>        -0.1109
     15 C15         5.3716   -5.8361   -1.6763 C.3       1 <0>        -0.1070
     16 C16        -0.1658   -4.6974    1.4075 C.2       1 <0>        -0.5655
     17 C17        -1.1532   -5.5756    1.8376 C.2       1 <0>         0.4256
     18 O1         -1.9794   -6.1309    1.1240 O.3       1 <0>        -0.5165
     19 C18        -1.0352   -5.7263    3.3136 C.ar      1 <0>        -0.1232
     20 C19        -1.7396   -6.4579    4.2486 C.ar      1 <0>        -0.0902
     21 C20        -1.3819   -6.3911    5.5948 C.ar      1 <0>        -0.1243
     22 C21        -0.3302   -5.5990    5.9945 C.ar      1 <0>        -0.1275
     23 C22         0.3865   -4.8563    5.0569 C.ar      1 <0>        -0.0888
     24 C23         0.0396   -4.9169    3.7221 C.ar      1 <0>        -0.1302
     25 C24         0.5857   -4.2727    2.4966 C.2       1 <0>         0.4274
     26 O2          1.5342   -3.4989    2.4553 O.2       1 <0>        -0.5422
     27 Br1        -1.2700   -5.1456   -1.1792 Br        1 <0>        -0.1463
     28 H1          0.5016    1.9251   -0.3974 H         1 <0>         0.0632
     29 H2         -0.9594    1.7133   -1.3919 H         1 <0>         0.0597
     30 H3         -1.0974    1.8305    0.3789 H         1 <0>         0.0603
     31 H4         -0.1530   -0.3235   -2.4431 H         1 <0>         0.1128
     32 H5          0.0785   -2.7684   -2.2633 H         1 <0>         0.1182
     33 H6         -0.2702   -2.4894    1.9782 H         1 <0>         0.1355
     34 H7         -0.4933   -0.0437    1.7989 H         1 <0>         0.1127
     35 H8          2.0164   -5.3594    1.4925 H         1 <0>         0.1345
     36 H9          4.2800   -6.0244    0.7874 H         1 <0>         0.1127
     37 H10         3.4141   -4.7535   -3.1907 H         1 <0>         0.1129
     38 H11         1.1477   -4.0963   -2.4874 H         1 <0>         0.1183
     39 H12         5.3596   -6.8752   -2.0054 H         1 <0>         0.0631
     40 H13         5.6979   -5.1986   -2.4980 H         1 <0>         0.0597
     41 H14         6.0594   -5.7285   -0.8377 H         1 <0>         0.0604
     42 H15        -2.5659   -7.0804    3.9384 H         1 <0>         0.1206
     43 H16        -1.9329   -6.9630    6.3266 H         1 <0>         0.1187
     44 H17        -0.0589   -5.5521    7.0388 H         1 <0>         0.1187
     45 H18         1.2110   -4.2351    5.3742 H         1 <0>         0.1202
@<TRIPOS>BOND
     1    1    2 1
     2    1   28 1
     3    1   29 1
     4    1   30 1
     5    2    7 ar
     6    2    3 ar
     7    3    4 ar
     8    3   31 1
     9    4    5 ar
    10    4   32 1
    11    5    6 ar
    12    5    8 1
    13    6    7 ar
    14    6   33 1
    15    7   34 1
    16    8    9 1
    17    8   16 1
    18    8   27 1
    19    9   14 ar
    20    9   10 ar
    21   10   11 ar
    22   10   35 1
    23   11   12 ar
    24   11   36 1
    25   12   13 ar
    26   12   15 1
    27   13   14 ar
    28   13   37 1
    29   14   38 1
    30   15   39 1
    31   15   40 1
    32   15   41 1
    33   16   25 1
    34   16   17 2
    35   17   18 1
    36   17   19 1
    37   19   24 ar
    38   19   20 ar
    39   20   21 ar
    40   20   42 1
    41   21   22 ar
    42   21   43 1
    43   22   23 ar
    44   22   44 1
    45   23   24 ar
    46   23   45 1
    47   24   25 1
    48   25   26 2
@<TRIPOS>MOLECULE
ZINC02308512
   39    42     0     0     0
SMALL
USER_CHARGES

@<TRIPOS>ATOM
      1 C1          0.0322    1.3050    0.6776 C.ar      1 <0>        -0.1264
      2 C2          1.2143    2.0389    0.6360 C.ar      1 <0>        -0.0740
      3 C3          2.4080    1.4338    0.3763 C.ar      1 <0>        -0.1033
      4 C4          2.4478    0.0510    0.1472 C.ar      1 <0>         0.1895
      5 C5          1.2431   -0.6938    0.1902 C.ar      1 <0>        -0.1921
      6 C6          0.0354   -0.0417    0.4594 C.ar      1 <0>        -0.0752
      7 C7          1.3071   -2.0903   -0.0438 C.ar      1 <0>         0.4677
      8 N1          2.4900   -2.6324   -0.2914 N.ar      1 <0>        -0.5724
      9 C8          3.5986   -1.8948   -0.3225 C.ar      1 <0>         0.4069
     10 N2          3.5949   -0.5910   -0.1117 N.ar      1 <0>        -0.5090
     11 C9          4.8892   -2.5645   -0.6053 C.ar      1 <0>        -0.0815
     12 C10         4.9291   -3.9386   -0.8384 C.ar      1 <0>        -0.0546
     13 C11         6.1334   -4.5572   -1.1017 C.ar      1 <0>        -0.1419
     14 C12         7.3042   -3.8189   -1.1357 C.ar      1 <0>        -0.0794
     15 C13         7.2770   -2.4572   -0.9059 C.ar      1 <0>        -0.1599
     16 C14         6.0732   -1.8205   -0.6456 C.ar      1 <0>         0.1604
     17 O1          6.0443   -0.4811   -0.4255 O.3       1 <0>        -0.4715
     18 N3          0.1662   -2.8654   -0.0140 N.pl3     1 <0>        -0.6401
     19 C15         0.2624   -4.2558   -0.1274 C.ar      1 <0>         0.1747
     20 C16         1.3285   -4.9293    0.4554 C.ar      1 <0>        -0.0961
     21 C17         1.4214   -6.3025    0.3426 C.ar      1 <0>        -0.0774
     22 C18         0.4537   -7.0084   -0.3504 C.ar      1 <0>        -0.0458
     23 C19        -0.6102   -6.3401   -0.9329 C.ar      1 <0>        -0.0100
     24 C20        -0.7107   -4.9662   -0.8179 C.ar      1 <0>        -0.1281
     25 Cl1        -1.8220   -7.2289   -1.8019 Cl        1 <0>        -0.0412
     26 Cl2         0.5737   -8.7346   -0.4901 Cl        1 <0>        -0.0457
     27 H1         -0.8996    1.8080    0.8899 H         1 <0>         0.1325
     28 H2          1.1853    3.1041    0.8118 H         1 <0>         0.1356
     29 H3          3.3172    2.0159    0.3467 H         1 <0>         0.1432
     30 H4         -0.8882   -0.6004    0.4946 H         1 <0>         0.1258
     31 H5          4.0180   -4.5180   -0.8124 H         1 <0>         0.1386
     32 H6          6.1633   -5.6216   -1.2818 H         1 <0>         0.1307
     33 H7          8.2434   -4.3103   -1.3425 H         1 <0>         0.1302
     34 H8          8.1939   -1.8871   -0.9335 H         1 <0>         0.1341
     35 H9          6.1530   -0.2326    0.5027 H         1 <0>         0.3905
     36 H10        -0.7027   -2.4459    0.0857 H         1 <0>         0.4247
     37 H11         2.0845   -4.3793    0.9961 H         1 <0>         0.1476
     38 H12         2.2504   -6.8261    0.7953 H         1 <0>         0.1479
     39 H13        -1.5427   -4.4454   -1.2684 H         1 <0>         0.1452
@<TRIPOS>BOND
     1    1    6 ar
     2    1    2 ar
     3    1   27 1
     4    2    3 ar
     5    2   28 1
     6    3    4 ar
     7    3   29 1
     8    4   10 ar
     9    4    5 ar
    10    5    6 ar
    11    5    7 ar
    12    6   30 1
    13    7    8 ar
    14    7   18 1
    15    8    9 ar
    16    9   10 ar
    17    9   11 1
    18   11   16 ar
    19   11   12 ar
    20   12   13 ar
    21   12   31 1
    22   13   14 ar
    23   13   32 1
    24   14   15 ar
    25   14   33 1
    26   15   16 ar
    27   15   34 1
    28   16   17 1
    29   17   35 1
    30   18   19 1
    31   18   36 1
    32   19   24 ar
    33   19   20 ar
    34   20   21 ar
    35   20   37 1
    36   21   22 ar
    37   21   38 1
    38   22   23 ar
    39   22   26 1
    40   23   24 ar
    41   23   25 1
    42   24   39 1
@<TRIPOS>MOLECULE
ZINC08411182
   51    54     0     0     0
SMALL
USER_CHARGES
2-[1-(2,5-dimethylphenyl)-4,5-diphenyl-imidazol-2-yl]sulfanylacetic acid
@<TRIPOS>ATOM
      1 C1         -3.3930   -2.5506   -2.4829 C.3       1 <0>        -0.1131
      2 C2         -2.7788   -2.1008   -1.1823 C.ar      1 <0>        -0.0825
      3 C3         -3.3173   -2.5248    0.0190 C.ar      1 <0>        -0.1005
      4 C4         -2.7564   -2.1147    1.2143 C.ar      1 <0>        -0.1097
      5 C5         -1.6561   -1.2794    1.2119 C.ar      1 <0>        -0.0657
      6 C6         -1.1137   -0.8518    0.0077 C.ar      1 <0>         0.1164
      7 C7         -1.6825   -1.2612   -1.1911 C.ar      1 <0>        -0.0889
      8 N1          0.0021   -0.0041    0.0020 N.pl3     1 <0>        -0.3961
      9 C8          1.3304   -0.3932   -0.0128 C.2       1 <0>         0.0226
     10 C9          2.0757    0.7698   -0.0136 C.2       1 <0>         0.0704
     11 N2          1.2167    1.8082    0.0002 N.2       1 <0>        -0.4749
     12 C10        -0.0164    1.3604    0.0095 C.2       1 <0>         0.2144
     13 S1         -1.4662    2.3617    0.0221 S.3       1 <0>         0.0333
     14 C11        -0.7118    4.0070    0.0273 C.3       1 <0>        -0.1368
     15 C12        -1.7939    5.0558    0.0383 C.2       1 <0>         0.4810
     16 O1         -2.9559    4.7248    0.0422 O.co2     1 <0>        -0.6213
     17 C13         3.5539    0.8596   -0.0268 C.ar      1 <0>         0.0034
     18 C14         4.3190   -0.0847    0.6579 C.ar      1 <0>        -0.1013
     19 C15         5.6959    0.0010    0.6371 C.ar      1 <0>        -0.1220
     20 C16         6.3176    1.0276   -0.0512 C.ar      1 <0>        -0.1219
     21 C17         5.5642    1.9702   -0.7279 C.ar      1 <0>        -0.1214
     22 C18         4.1867    1.8920   -0.7193 C.ar      1 <0>        -0.0912
     23 C19         1.8473   -1.7749   -0.0255 C.ar      1 <0>        -0.0044
     24 C20         1.3051   -2.7352    0.8326 C.ar      1 <0>        -0.1104
     25 C21         1.7897   -4.0262    0.8114 C.ar      1 <0>        -0.1181
     26 C22         2.8179   -4.3688   -0.0492 C.ar      1 <0>        -0.1187
     27 C23         3.3637   -3.4217   -0.8978 C.ar      1 <0>        -0.1176
     28 C24         2.8853   -2.1282   -0.8917 C.ar      1 <0>        -0.0900
     29 C25        -1.0450   -0.8332    2.5152 C.3       1 <0>        -0.1242
     30 H1         -4.1624   -1.8406   -2.7861 H         1 <0>         0.0753
     31 H2         -2.6213   -2.6002   -3.2511 H         1 <0>         0.0663
     32 H3         -3.8394   -3.5363   -2.3522 H         1 <0>         0.0681
     33 H4         -4.1774   -3.1779    0.0233 H         1 <0>         0.1287
     34 H5         -3.1790   -2.4474    2.1507 H         1 <0>         0.1320
     35 H6         -1.2654   -0.9265   -2.1295 H         1 <0>         0.1274
     36 H7         -0.0889    4.1182    0.9149 H         1 <0>         0.0966
     37 H8         -0.0976    4.1279   -0.8650 H         1 <0>         0.0963
     38 H9          3.8347   -0.8837    1.1996 H         1 <0>         0.1206
     39 H10         6.2895   -0.7318    1.1635 H         1 <0>         0.1202
     40 H11         7.3956    1.0933   -0.0605 H         1 <0>         0.1188
     41 H12         6.0552    2.7690   -1.2637 H         1 <0>         0.1223
     42 H13         3.5995    2.6284   -1.2480 H         1 <0>         0.1274
     43 H14         0.5054   -2.4682    1.5076 H         1 <0>         0.1236
     44 H15         1.3689   -4.7705    1.4711 H         1 <0>         0.1216
     45 H16         3.1961   -5.3804   -0.0588 H         1 <0>         0.1207
     46 H17         4.1659   -3.6962   -1.5668 H         1 <0>         0.1238
     47 H18         3.3116   -1.3902   -1.5550 H         1 <0>         0.1245
     48 H19        -1.5188    0.0930    2.8404 H         1 <0>         0.0839
     49 H20        -1.1975   -1.6040    3.2707 H         1 <0>         0.0721
     50 H21         0.0232   -0.6660    2.3772 H         1 <0>         0.0666
     51 O2         -1.4668    6.3576    0.0438 O.co2     1 <0>        -0.7476
@<TRIPOS>BOND
     1    1    2 1
     2    1   30 1
     3    1   31 1
     4    1   32 1
     5    2    7 ar
     6    2    3 ar
     7    3    4 ar
     8    3   33 1
     9    4    5 ar
    10    4   34 1
    11    5    6 ar
    12    5   29 1
    13    6    7 ar
    14    6    8 1
    15    7   35 1
    16    8   12 1
    17    8    9 1
    18    9   10 2
    19    9   23 1
    20   10   11 1
    21   10   17 1
    22   11   12 2
    23   12   13 1
    24   13   14 1
    25   14   15 1
    26   14   36 1
    27   14   37 1
    28   15   16 2
    29   15   51 1
    30   17   22 ar
    31   17   18 ar
    32   18   19 ar
    33   18   38 1
    34   19   20 ar
    35   19   39 1
    36   20   21 ar
    37   20   40 1
    38   21   22 ar
    39   21   41 1
    40   22   42 1
    41   23   28 ar
    42   23   24 ar
    43   24   25 ar
    44   24   43 1
    45   25   26 ar
    46   25   44 1
    47   26   27 ar
    48   26   45 1
    49   27   28 ar
    50   27   46 1
    51   28   47 1
    52   29   48 1
    53   29   49 1
    54   29   50 1
@<TRIPOS>MOLECULE
ZINC16777156
   36    38     0     0     0
SMALL
USER_CHARGES
6-benzyl-3-[(3,4-dichlorophenyl)methylsulfanyl]-4H-1,2,4-triazin-5-one
@<TRIPOS>ATOM
      1 C1         -0.0126    1.0758    0.0080 C.ar      1 <0>        -0.1350
      2 C2         -1.2190    1.7506    0.0173 C.ar      1 <0>        -0.1206
      3 C3         -1.2377    3.1328    0.0303 C.ar      1 <0>        -0.1087
      4 C4         -0.0501    3.8402    0.0223 C.ar      1 <0>        -0.0423
      5 C5          1.1563    3.1654    0.0076 C.ar      1 <0>        -0.1086
      6 C6          1.1750    1.7832    0.0004 C.ar      1 <0>        -0.1207
      7 C7         -0.0705    5.3471    0.0302 C.3       1 <0>         0.0037
      8 C8         -0.0906    5.8566   -1.3879 C.ar      1 <0>        -0.1053
      9 C9         -0.1178    7.2442   -1.6456 C.ar      1 <0>         0.4735
     10 O1         -0.1255    8.0513   -0.7313 O.3       1 <0>        -0.5921
     11 N1         -0.1304    7.6541   -2.9349 N.ar      1 <0>        -0.6175
     12 C10        -0.1267    6.7102   -3.9184 C.ar      1 <0>         0.2718
     13 N2         -0.1059    5.4237   -3.6118 N.ar      1 <0>        -0.4158
     14 N3         -0.0885    5.0139   -2.3942 N.ar      1 <0>        -0.1823
     15 S1         -0.1504    7.2071   -5.6088 S.3       1 <0>        -0.0221
     16 C11        -0.1359    5.5858   -6.4132 C.3       1 <0>        -0.0718
     17 C12        -0.1533    5.7670   -7.9091 C.ar      1 <0>        -0.0468
     18 C13        -1.3587    5.8279   -8.5838 C.ar      1 <0>        -0.0861
     19 C14        -1.3761    5.9998   -9.9550 C.ar      1 <0>        -0.0977
     20 C15        -0.1868    6.0997  -10.6548 C.ar      1 <0>        -0.0325
     21 C16         1.0202    6.0331   -9.9799 C.ar      1 <0>        -0.0293
     22 C17         1.0357    5.8667   -8.6066 C.ar      1 <0>        -0.0830
     23 Cl1         2.5134    6.1588  -10.8564 Cl        1 <0>        -0.0514
     24 Cl2        -0.2080    6.3091  -12.3780 Cl        1 <0>        -0.0549
     25 H1          0.0021   -0.0041    0.0020 H         1 <0>         0.1128
     26 H2         -2.1469    1.1980    0.0187 H         1 <0>         0.1139
     27 H3         -2.1802    3.6600    0.0422 H         1 <0>         0.1139
     28 H4          2.0841    3.7181    0.0014 H         1 <0>         0.1140
     29 H5          2.1175    1.2560   -0.0115 H         1 <0>         0.1139
     30 H6         -0.9686    5.6989    0.5590 H         1 <0>         0.0782
     31 H7          0.8274    5.7233    0.5423 H         1 <0>         0.0781
     32 H8          0.7729    5.0394   -6.1206 H         1 <0>         0.1076
     33 H9         -1.0231    5.0145   -6.1027 H         1 <0>         0.1089
     34 H10        -2.2872    5.7452   -8.0384 H         1 <0>         0.1436
     35 H11        -2.3180    6.0514  -10.4809 H         1 <0>         0.1439
     36 H12         1.9769    5.8142   -8.0796 H         1 <0>         0.1466
@<TRIPOS>BOND
     1    1    6 ar
     2    1    2 ar
     3    1   25 1
     4    2    3 ar
     5    2   26 1
     6    3    4 ar
     7    3   27 1
     8    4    5 ar
     9    4    7 1
    10    5    6 ar
    11    5   28 1
    12    6   29 1
    13    7    8 1
    14    7   30 1
    15    7   31 1
    16    8   14 ar
    17    8    9 ar
    18    9   10 1
    19    9   11 ar
    20   11   12 ar
    21   12   13 ar
    22   12   15 1
    23   13   14 ar
    24   15   16 1
    25   16   17 1
    26   16   32 1
    27   16   33 1
    28   17   22 ar
    29   17   18 ar
    30   18   19 ar
    31   18   34 1
    32   19   20 ar
    33   19   35 1
    34   20   21 ar
    35   20   24 1
    36   21   22 ar
    37   21   23 1
    38   22   36 1
@<TRIPOS>MOLECULE
ZINC33710260
   47    50     0     0     0
SMALL
USER_CHARGES
5-phenyl-1-(p-tolyl)-3-[4-(trifluoromethyl)phenyl]pyrazole-4-carboxylic acid
@<TRIPOS>ATOM
      1 C1          2.4517    3.9348   -0.0007 C.3       1 <0>        -0.1132
      2 C2          1.1556    3.1660    0.0081 C.ar      1 <0>        -0.0970
      3 C3          1.1735    1.7833    0.0004 C.ar      1 <0>        -0.1037
      4 C4         -0.0126    1.0758    0.0080 C.ar      1 <0>        -0.1120
      5 C5         -1.2243    1.7546    0.0174 C.ar      1 <0>         0.1596
      6 C6         -1.2387    3.1434    0.0313 C.ar      1 <0>        -0.1191
      7 C7         -0.0491    3.8449    0.0233 C.ar      1 <0>        -0.0989
      8 N1         -2.4283    1.0406    0.0187 N.pl3     1 <0>        -0.3217
      9 C8         -3.5636    1.4182    0.6622 C.2       1 <0>         0.1105
     10 C9         -4.5278    0.4411    0.4146 C.2       1 <0>        -0.1762
     11 C10        -3.8849   -0.5647   -0.4345 C.2       1 <0>         0.1194
     12 N2         -2.6505   -0.1680   -0.6467 N.2       1 <0>        -0.2703
     13 C11        -4.5131   -1.7996   -0.9620 C.ar      1 <0>         0.0308
     14 C12        -5.4462   -2.4934   -0.1930 C.ar      1 <0>        -0.0826
     15 C13        -6.0316   -3.6394   -0.6914 C.ar      1 <0>        -0.0685
     16 C14        -5.6864   -4.1058   -1.9472 C.ar      1 <0>        -0.1858
     17 C15        -4.7570   -3.4246   -2.7125 C.ar      1 <0>        -0.0788
     18 C16        -4.1689   -2.2746   -2.2266 C.ar      1 <0>        -0.0962
     19 C17        -6.3251   -5.3610   -2.4834 C.3       1 <0>         0.5108
     20 F1         -5.5553   -6.4697   -2.1154 F         1 <0>        -0.1793
     21 F2         -7.6135   -5.4915   -1.9541 F         1 <0>        -0.1765
     22 F3         -6.3993   -5.2872   -3.8785 F         1 <0>        -0.1797
     23 C18        -5.9109    0.4240    0.9071 C.2       1 <0>         0.5289
     24 O1         -6.7955    0.9420    0.2534 O.co2     1 <0>        -0.6210
     25 O2         -6.2001   -0.1664    2.0843 O.co2     1 <0>        -0.7435
     26 C19        -3.7435    2.6379    1.4750 C.ar      1 <0>        -0.0230
     27 C20        -2.7702    3.0117    2.4040 C.ar      1 <0>        -0.0966
     28 C21        -2.9422    4.1551    3.1561 C.ar      1 <0>        -0.1252
     29 C22        -4.0814    4.9249    2.9999 C.ar      1 <0>        -0.1145
     30 C23        -5.0523    4.5576    2.0850 C.ar      1 <0>        -0.1190
     31 C24        -4.8905    3.4198    1.3222 C.ar      1 <0>        -0.0779
     32 H1          3.2961    3.2299   -0.0125 H         1 <0>         0.0646
     33 H2          2.5113    4.5633    0.9001 H         1 <0>         0.0693
     34 H3          2.4937    4.5724   -0.8961 H         1 <0>         0.0688
     35 H4          2.1160    1.2561   -0.0111 H         1 <0>         0.1280
     36 H5          0.0021   -0.0041    0.0020 H         1 <0>         0.1321
     37 H6         -2.1792    3.6742    0.0435 H         1 <0>         0.1322
     38 H7         -0.0597    4.9248    0.0292 H         1 <0>         0.1289
     39 H8         -5.7131   -2.1327    0.7893 H         1 <0>         0.1601
     40 H9         -6.7574   -4.1757   -0.0981 H         1 <0>         0.1394
     41 H10        -4.4913   -3.7933   -3.6922 H         1 <0>         0.1356
     42 H11        -3.4430   -1.7438   -2.8248 H         1 <0>         0.1362
     43 H12        -1.8827    2.4093    2.5301 H         1 <0>         0.1170
     44 H13        -2.1882    4.4478    3.8718 H         1 <0>         0.1220
     45 H14        -4.2131    5.8168    3.5946 H         1 <0>         0.1211
     46 H15        -5.9386    5.1634    1.9676 H         1 <0>         0.1260
     47 H16        -5.6489    3.1344    0.6082 H         1 <0>         0.1389
@<TRIPOS>BOND
     1    1    2 1
     2    1   32 1
     3    1   33 1
     4    1   34 1
     5    2    7 ar
     6    2    3 ar
     7    3    4 ar
     8    3   35 1
     9    4    5 ar
    10    4   36 1
    11    5    6 ar
    12    5    8 1
    13    6    7 ar
    14    6   37 1
    15    7   38 1
    16    8   12 1
    17    8    9 1
    18    9   10 2
    19    9   26 1
    20   10   11 1
    21   10   23 1
    22   11   12 2
    23   11   13 1
    24   13   18 ar
    25   13   14 ar
    26   14   15 ar
    27   14   39 1
    28   15   16 ar
    29   15   40 1
    30   16   17 ar
    31   16   19 1
    32   17   18 ar
    33   17   41 1
    34   18   42 1
    35   19   20 1
    36   19   21 1
    37   19   22 1
    38   23   24 2
    39   23   25 1
    40   26   31 ar
    41   26   27 ar
    42   27   28 ar
    43   27   43 1
    44   28   29 ar
    45   28   44 1
    46   29   30 ar
    47   29   45 1
    48   30   31 ar
    49   30   46 1
    50   31   47 1
@<TRIPOS>MOLECULE
ZINC39556927
   51    55     0     0     0
SMALL
USER_CHARGES

@<TRIPOS>ATOM
      1 C1          7.0802   -1.4953    3.1047 C.3       1 <0>        -0.1092
      2 C2          5.8426   -2.0232    2.4260 C.ar      1 <0>        -0.0810
      3 C3          5.7819   -2.0779    1.0454 C.ar      1 <0>        -0.1273
      4 C4          4.6481   -2.5616    0.4192 C.ar      1 <0>        -0.1120
      5 C5          3.5722   -2.9919    1.1713 C.ar      1 <0>        -0.1192
      6 C6          3.6302   -2.9382    2.5571 C.ar      1 <0>         0.1682
      7 C7          4.7724   -2.4572    3.1833 C.ar      1 <0>        -0.0834
      8 N1          2.5399   -3.3737    3.3231 N.am      1 <0>        -0.5340
      9 C8          1.9702   -4.5972    3.2635 C.2       1 <0>         0.5123
     10 O1          2.2946   -5.5272    2.5463 O.2       1 <0>        -0.5040
     11 C9          0.8778   -4.5712    4.2456 C.2       1 <0>        -0.0169
     12 C10         0.0058   -5.5984    4.5459 C.2       1 <0>         0.0040
     13 C11         0.0094   -6.7816    3.7662 C.2       1 <0>        -0.1592
     14 C12         0.1529   -6.8702    2.3977 C.2       1 <0>         0.1279
     15 N2          0.1043   -8.1726    2.0214 N.pl3     1 <0>        -0.4665
     16 C13        -0.0721   -8.9881    3.1207 C.ar      1 <0>         0.0931
     17 C14        -0.1332   -8.1663    4.2573 C.ar      1 <0>        -0.0760
     18 C15        -0.3031   -8.7296    5.5187 C.ar      1 <0>        -0.0726
     19 C16        -0.4073  -10.0980    5.6467 C.ar      1 <0>        -0.1475
     20 C17        -0.3432  -10.9121    4.5257 C.ar      1 <0>        -0.1100
     21 C18        -0.1835  -10.3668    3.2701 C.ar      1 <0>        -0.1266
     22 C19         0.2220   -8.6472    0.6405 C.3       1 <0>         0.1493
     23 C20        -1.1537   -8.8295    0.0529 C.ar      1 <0>        -0.1120
     24 C21        -1.8025  -10.0439    0.1762 C.ar      1 <0>        -0.0981
     25 C22        -3.0644  -10.2112   -0.3627 C.ar      1 <0>        -0.1219
     26 C23        -3.6777   -9.1640   -1.0246 C.ar      1 <0>        -0.1134
     27 C24        -3.0292   -7.9493   -1.1471 C.ar      1 <0>        -0.1203
     28 C25        -1.7691   -7.7807   -0.6045 C.ar      1 <0>        -0.0984
     29 N3          0.9013   -3.3211    4.8024 N.2       1 <0>        -0.5429
     30 C26         1.8723   -2.6310    4.2664 C.2       1 <0>         0.4915
     31 S1          2.2696   -0.9682    4.6929 S.3       1 <0>        -0.7617
     32 H1          7.7743   -2.3163    3.2842 H         1 <0>         0.0657
     33 H2          7.5554   -0.7509    2.4659 H         1 <0>         0.0641
     34 H3          6.8060   -1.0370    4.0549 H         1 <0>         0.0690
     35 H4          6.6216   -1.7418    0.4553 H         1 <0>         0.1196
     36 H5          4.6034   -2.6028   -0.6591 H         1 <0>         0.1219
     37 H6          2.6867   -3.3693    0.6816 H         1 <0>         0.1162
     38 H7          4.8222   -2.4187    4.2615 H         1 <0>         0.1288
     39 H8         -0.6792   -5.5001    5.3750 H         1 <0>         0.1338
     40 H9          0.2835   -6.0323    1.7289 H         1 <0>         0.1672
     41 H10        -0.3526   -8.0976    6.3930 H         1 <0>         0.1225
     42 H11        -0.5392  -10.5381    6.6241 H         1 <0>         0.1194
     43 H12        -0.4256  -11.9832    4.6371 H         1 <0>         0.1197
     44 H13        -0.1332  -11.0100    2.4041 H         1 <0>         0.1122
     45 H14         0.7749   -7.9159    0.0508 H         1 <0>         0.1005
     46 H15         0.7518   -9.5997    0.6276 H         1 <0>         0.0940
     47 H16        -1.3234  -10.8621    0.6934 H         1 <0>         0.1214
     48 H17        -3.5710  -11.1602   -0.2670 H         1 <0>         0.1228
     49 H18        -4.6633   -9.2949   -1.4463 H         1 <0>         0.1221
     50 H19        -3.5082   -7.1312   -1.6646 H         1 <0>         0.1240
     51 H20        -1.2640   -6.8306   -0.6970 H         1 <0>         0.1229
@<TRIPOS>BOND
     1    1    2 1
     2    1   32 1
     3    1   33 1
     4    1   34 1
     5    2    7 ar
     6    2    3 ar
     7    3    4 ar
     8    3   35 1
     9    4    5 ar
    10    4   36 1
    11    5    6 ar
    12    5   37 1
    13    6    7 ar
    14    6    8 1
    15    7   38 1
    16    8   30 1
    17    8    9 am
    18    9   10 2
    19    9   11 1
    20   11   12 2
    21   11   29 1
    22   12   13 1
    23   12   39 1
    24   13   17 1
    25   13   14 2
    26   14   15 1
    27   14   40 1
    28   15   16 1
    29   15   22 1
    30   16   21 ar
    31   16   17 ar
    32   17   18 ar
    33   18   19 ar
    34   18   41 1
    35   19   20 ar
    36   19   42 1
    37   20   21 ar
    38   20   43 1
    39   21   44 1
    40   22   23 1
    41   22   45 1
    42   22   46 1
    43   23   28 ar
    44   23   24 ar
    45   24   25 ar
    46   24   47 1
    47   25   26 ar
    48   25   48 1
    49   26   27 ar
    50   26   49 1
    51   27   28 ar
    52   27   50 1
    53   28   51 1
    54   29   30 2
    55   30   31 1
@<TRIPOS>MOLECULE
ZINC05924399
   38    39     0     0     0
SMALL
USER_CHARGES

@<TRIPOS>ATOM
      1 C1          0.0803    1.5915   -1.1421 C.3       1 <0>        -0.1286
      2 C2          0.2041    0.1475   -0.6517 C.3       1 <0>        -0.1078
      3 C3          1.1257   -0.6166   -1.5670 C.ar      1 <0>        -0.1491
      4 C4          0.6099   -1.5455   -2.4492 C.ar      1 <0>        -0.1102
      5 C5          1.4549   -2.2471   -3.2894 C.ar      1 <0>        -0.1789
      6 C6          2.8186   -2.0210   -3.2499 C.ar      1 <0>        -0.1126
      7 C7          3.3411   -1.0935   -2.3701 C.ar      1 <0>        -0.1154
      8 C8          2.4946   -0.3832   -1.5284 C.ar      1 <0>         0.2571
      9 N1          3.0191    0.5594   -0.6411 N.2       1 <0>        -1.1098
     10 S1          3.0589    0.2359    0.9825 S.o2      1 <0>         2.5922
     11 O1          1.8181    0.6784    1.5153 O.2       1 <0>        -1.0142
     12 O2          3.5119   -1.1040    1.1187 O.2       1 <0>        -1.0254
     13 C9          4.3048    1.2629    1.6880 C.ar      1 <0>        -0.6008
     14 C10         3.9583    2.2437    2.5982 C.ar      1 <0>        -0.0140
     15 C11         4.9365    3.0499    3.1520 C.ar      1 <0>        -0.0601
     16 C12         6.2618    2.8746    2.7947 C.ar      1 <0>        -0.0672
     17 C13         6.6081    1.8942    1.8848 C.ar      1 <0>        -0.1290
     18 C14         5.6303    1.0838    1.3351 C.ar      1 <0>         0.0463
     19 Cl1         6.0663   -0.1527    0.1973 Cl        1 <0>        -0.0060
     20 Cl2         4.5013    4.2821    4.2948 Cl        1 <0>        -0.0700
     21 C15         4.8274   -0.8482   -2.3274 C.3       1 <0>        -0.0798
     22 C16         5.5246   -2.0506   -1.6879 C.3       1 <0>        -0.1547
     23 H1          1.0640    2.0610   -1.1417 H         1 <0>         0.0736
     24 H2         -0.3250    1.5981   -2.1540 H         1 <0>         0.0323
     25 H3         -0.5863    2.1442   -0.4801 H         1 <0>         0.0369
     26 H4          0.6094    0.1409    0.3601 H         1 <0>         0.1126
     27 H5         -0.7796   -0.3219   -0.6522 H         1 <0>         0.0410
     28 H6         -0.4547   -1.7245   -2.4826 H         1 <0>         0.0997
     29 H7          1.0489   -2.9735   -3.9779 H         1 <0>         0.0999
     30 H8          3.4757   -2.5706   -3.9075 H         1 <0>         0.0997
     31 H9          2.9239    2.3807    2.8768 H         1 <0>         0.1544
     32 H10         7.0254    3.5043    3.2269 H         1 <0>         0.1413
     33 H11         7.6424    1.7576    1.6057 H         1 <0>         0.1436
     34 H12         5.2018   -0.7080   -3.3414 H         1 <0>         0.0452
     35 H13         5.0312    0.0458   -1.7380 H         1 <0>         0.0984
     36 H14         6.5850   -1.8315   -1.5629 H         1 <0>         0.0367
     37 H15         5.0783   -2.2539   -0.7144 H         1 <0>         0.0753
     38 H16         5.4070   -2.9229   -2.3307 H         1 <0>         0.0474
@<TRIPOS>BOND
     1    1    2 1
     2    1   23 1
     3    1   24 1
     4    1   25 1
     5    2    3 1
     6    2   26 1
     7    2   27 1
     8    3    8 ar
     9    3    4 ar
    10    4    5 ar
    11    4   28 1
    12    5    6 ar
    13    5   29 1
    14    6    7 ar
    15    6   30 1
    16    7    8 ar
    17    7   21 1
    18    8    9 1
    19    9   10 1
    20   10   11 2
    21   10   12 2
    22   10   13 1
    23   13   18 ar
    24   13   14 ar
    25   14   15 ar
    26   14   31 1
    27   15   16 ar
    28   15   20 1
    29   16   17 ar
    30   16   32 1
    31   17   18 ar
    32   17   33 1
    33   18   19 1
    34   21   22 1
    35   21   34 1
    36   21   35 1
    37   22   36 1
    38   22   37 1
    39   22   38 1
@<TRIPOS>MOLECULE
ZINC09108656
   45    48     0     0     0
SMALL
USER_CHARGES

@<TRIPOS>ATOM
      1 C1         -2.0685   -0.7534   -0.2475 C.3       1 <0>        -0.1511
      2 C2         -0.5685   -1.0515   -0.2953 C.3       1 <0>         0.0567
      3 O1         -0.1430   -1.5587    0.9711 O.3       1 <0>        -0.3453
      4 C3          1.1630   -1.8737    1.0974 C.2       1 <0>         0.5332
      5 O2          1.9194   -1.7214    0.1565 O.2       1 <0>        -0.4915
      6 C4          1.6529   -2.3811    2.3236 C.2       1 <0>        -0.2188
      7 C5          1.4790   -3.6825    2.5913 C.2       1 <0>         0.1866
      8 N1          1.9257   -4.2714    3.7451 N.pl3     1 <0>        -0.6120
      9 C6          2.8138   -3.5698    4.5315 C.2       1 <0>         0.2411
     10 C7          3.0438   -2.2308    4.3395 C.2       1 <0>        -0.2800
     11 C8          2.3504   -1.4349    3.2642 C.3       1 <0>         0.0879
     12 H1          3.0838   -0.8468    2.7124 H         1 <0>         0.1063
     13 C9          1.3379   -0.5158    3.8975 C.ar      1 <0>        -0.0495
     14 C10         0.3110   -1.0394    4.6606 C.ar      1 <0>        -0.0919
     15 C11        -0.6174   -0.1965    5.2420 C.ar      1 <0>        -0.1046
     16 C12        -0.5197    1.1707    5.0604 C.ar      1 <0>        -0.1131
     17 C13         0.5065    1.6950    4.2977 C.ar      1 <0>        -0.0907
     18 C14         1.4391    0.8521    3.7200 C.ar      1 <0>        -0.0781
     19 Br1         2.8476    1.5694    2.6820 Br        1 <0>        -0.0420
     20 C15         3.9961   -1.7732    5.2772 C.2       1 <0>         0.4453
     21 O3          4.4202   -0.6378    5.3759 O.2       1 <0>        -0.4152
     22 C16         4.3827   -2.9277    6.1175 C.ar      1 <0>        -0.1530
     23 C17         3.6417   -4.0414    5.6463 C.ar      1 <0>        -0.0635
     24 C18         3.7804   -5.2891    6.2331 C.ar      1 <0>        -0.0795
     25 C19         4.6776   -5.3914    7.3001 C.ar      1 <0>        -0.0997
     26 C20         5.3943   -4.3100    7.7543 C.ar      1 <0>        -0.1094
     27 C21         5.2659   -3.0438    7.1731 C.ar      1 <0>        -0.0427
     28 C22         0.7599   -4.5362    1.5788 C.3       1 <0>        -0.1380
     29 H2         -2.2670   -0.0118    0.5262 H         1 <0>         0.0669
     30 H3         -2.3930   -0.3666   -1.2135 H         1 <0>         0.0797
     31 H4         -2.6139   -1.6696   -0.0211 H         1 <0>         0.0656
     32 H5         -0.3700   -1.7932   -1.0690 H         1 <0>         0.0674
     33 H6         -0.0231   -0.1354   -0.5217 H         1 <0>         0.0687
     34 H7          1.6249   -5.1572    4.0015 H         1 <0>         0.4249
     35 H8          0.2340   -2.1073    4.8024 H         1 <0>         0.1216
     36 H9         -1.4197   -0.6059    5.8378 H         1 <0>         0.1279
     37 H10        -1.2456    1.8289    5.5145 H         1 <0>         0.1313
     38 H11         0.5828    2.7630    4.1559 H         1 <0>         0.1330
     39 H12         3.2211   -6.1436    5.8818 H         1 <0>         0.1391
     40 H13         4.8115   -6.3486    7.7821 H         1 <0>         0.1340
     41 H14         6.0752   -4.4414    8.5824 H         1 <0>         0.1351
     42 H15         5.8310   -2.1967    7.5330 H         1 <0>         0.1465
     43 H16         1.4682   -4.8801    0.8250 H         1 <0>         0.0931
     44 H17         0.3155   -5.3966    2.0791 H         1 <0>         0.0848
     45 H18        -0.0240   -3.9494    1.1000 H         1 <0>         0.0930
@<TRIPOS>BOND
     1    1    2 1
     2    1   29 1
     3    1   30 1
     4    1   31 1
     5    2    3 1
     6    2   32 1
     7    2   33 1
     8    3    4 1
     9    4    5 2
    10    4    6 1
    11    6   11 1
    12    6    7 2
    13    7    8 1
    14    7   28 1
    15    8    9 1
    16    8   34 1
    17    9   23 1
    18    9   10 2
    19   10   11 1
    20   10   20 1
    21   11   12 1
    22   11   13 1
    23   13   18 ar
    24   13   14 ar
    25   14   15 ar
    26   14   35 1
    27   15   16 ar
    28   15   36 1
    29   16   17 ar
    30   16   37 1
    31   17   18 ar
    32   17   38 1
    33   18   19 1
    34   20   21 2
    35   20   22 1
    36   22   27 ar
    37   22   23 ar
    38   23   24 ar
    39   24   25 ar
    40   24   39 1
    41   25   26 ar
    42   25   40 1
    43   26   27 ar
    44   26   41 1
    45   27   42 1
    46   28   43 1
    47   28   44 1
    48   28   45 1
@<TRIPOS>MOLECULE
ZINC08410933
   37    39     0     0     0
SMALL
USER_CHARGES

@<TRIPOS>ATOM
      1 C1         -0.1311    0.9853   -0.1562 C.3       1 <0>        -0.1078
      2 C2         -0.8937   -0.2930    0.0790 C.ar      1 <0>        -0.0817
      3 C3         -1.7042   -0.8072   -0.9169 C.ar      1 <0>        -0.1660
      4 C4         -2.4057   -1.9797   -0.7051 C.ar      1 <0>        -0.1085
      5 C5         -2.2994   -2.6414    0.5027 C.ar      1 <0>        -0.1164
      6 C6         -1.4865   -2.1278    1.5048 C.ar      1 <0>         0.1627
      7 C7         -0.7783   -0.9527    1.2866 C.ar      1 <0>        -0.1520
      8 N1         -1.3767   -2.7950    2.7285 N.2       1 <0>        -0.5621
      9 C8         -0.9397   -2.1215    3.8394 C.2       1 <0>         0.4344
     10 N2         -0.8811   -0.8140    4.0372 N.2       1 <0>        -0.7050
     11 C9         -0.4382   -0.2892    5.1582 C.2       1 <0>         0.5276
     12 O1         -0.3893    0.9183    5.3289 O.2       1 <0>        -0.5336
     13 C10        -0.0018   -1.2454    6.2038 C.2       1 <0>        -0.1608
     14 C11         0.4935   -1.0100    7.4444 C.2       1 <0>        -0.0416
     15 C12         0.7137   -2.1280    8.3717 C.ar      1 <0>        -0.0343
     16 C13         0.1168   -3.3709    8.1296 C.ar      1 <0>        -0.0881
     17 C14         0.3279   -4.4147    9.0037 C.ar      1 <0>        -0.0972
     18 C15         1.1289   -4.2373   10.1211 C.ar      1 <0>        -0.0281
     19 C16         1.7234   -3.0113   10.3686 C.ar      1 <0>        -0.1032
     20 C17         1.5266   -1.9575    9.4997 C.ar      1 <0>        -0.0153
     21 Cl1         2.2787   -0.4234    9.8070 Cl        1 <0>        -0.0517
     22 Cl2         1.3877   -5.5591   11.2164 Cl        1 <0>        -0.0645
     23 S1         -0.3195   -2.7966    5.3722 S.3       1 <0>        -0.1193
     24 C18        -3.0651   -3.9188    0.7329 C.3       1 <0>        -0.0906
     25 H1          0.8443    0.7530   -0.5839 H         1 <0>         0.0601
     26 H2         -0.6885    1.6193   -0.8458 H         1 <0>         0.0571
     27 H3          0.0026    1.5081    0.7908 H         1 <0>         0.0637
     28 H4         -1.7896   -0.2914   -1.8619 H         1 <0>         0.1065
     29 H5         -3.0376   -2.3785   -1.4849 H         1 <0>         0.1105
     30 H6         -0.1416   -0.5532    2.0621 H         1 <0>         0.1340
     31 H7          0.7260   -0.0007    7.7505 H         1 <0>         0.1528
     32 H8         -0.5079   -3.5112    7.2599 H         1 <0>         0.1606
     33 H9         -0.1324   -5.3739    8.8181 H         1 <0>         0.1425
     34 H10         2.3458   -2.8808   11.2415 H         1 <0>         0.1440
     35 H11        -2.4567   -4.7681    0.4221 H         1 <0>         0.0561
     36 H12        -3.3057   -4.0123    1.7919 H         1 <0>         0.0685
     37 H13        -3.9867   -3.8998    0.1513 H         1 <0>         0.0470
@<TRIPOS>BOND
     1    1    2 1
     2    1   25 1
     3    1   26 1
     4    1   27 1
     5    2    7 ar
     6    2    3 ar
     7    3    4 ar
     8    3   28 1
     9    4    5 ar
    10    4   29 1
    11    5    6 ar
    12    5   24 1
    13    6    7 ar
    14    6    8 1
    15    7   30 1
    16    8    9 1
    17    9   23 1
    18    9   10 2
    19   10   11 1
    20   11   12 2
    21   11   13 1
    22   13   14 2
    23   13   23 1
    24   14   15 1
    25   14   31 1
    26   15   20 ar
    27   15   16 ar
    28   16   17 ar
    29   16   32 1
    30   17   18 ar
    31   17   33 1
    32   18   19 ar
    33   18   22 1
    34   19   20 ar
    35   19   34 1
    36   20   21 1
    37   24   35 1
    38   24   36 1
    39   24   37 1
@<TRIPOS>MOLECULE
ZINC11957036
   40    43     0     0     0
SMALL
USER_CHARGES
2-[2-[(4-chlorophenyl)methoxy]-1-naphthyl]thiazole-4-carboxylic acid
@<TRIPOS>ATOM
      1 C1         -0.0122    1.0803   -0.1653 C.ar      1 <0>        -0.1201
      2 C2         -1.2333    1.7505   -0.1569 C.ar      1 <0>        -0.1073
      3 C3         -1.2853    3.1101   -0.0875 C.ar      1 <0>        -0.0929
      4 C4         -0.0949    3.8487   -0.0353 C.ar      1 <0>         0.0125
      5 C5          1.1477    3.1697   -0.0496 C.ar      1 <0>        -0.0807
      6 C6          1.1631    1.7658   -0.1159 C.ar      1 <0>        -0.1046
      7 C7          2.3437    3.9077    0.0020 C.ar      1 <0>        -0.0534
      8 C8          2.3077    5.2666    0.0650 C.ar      1 <0>        -0.1926
      9 C9          1.0945    5.9557    0.0802 C.ar      1 <0>         0.1517
     10 C10        -0.1117    5.2637    0.0306 C.ar      1 <0>        -0.0238
     11 C11        -1.3922    5.9946    0.0468 C.2       1 <0>         0.1146
     12 N1         -2.4512    5.8398   -0.7291 N.2       1 <0>        -0.4226
     13 C12        -3.5177    6.6065   -0.5513 C.2       1 <0>         0.0154
     14 C13        -3.5014    7.5538    0.4430 C.2       1 <0>        -0.1897
     15 S1         -1.9221    7.3158    1.1249 S.3       1 <0>         0.0301
     16 C14        -4.7031    6.4453   -1.4080 C.2       1 <0>         0.5167
     17 O1         -5.6767    7.1528   -1.2379 O.co2     1 <0>        -0.6305
     18 O2          1.0910    7.3118    0.1436 O.3       1 <0>        -0.2942
     19 C15         2.3624    7.9623    0.1917 C.3       1 <0>         0.0983
     20 C16         2.1611    9.4543    0.2587 C.ar      1 <0>        -0.0896
     21 C17         2.0911   10.1950   -0.9065 C.ar      1 <0>        -0.0795
     22 C18         1.9008   11.5627   -0.8459 C.ar      1 <0>        -0.1129
     23 C19         1.7916   12.1919    0.3814 C.ar      1 <0>        -0.0246
     24 C20         1.8674   11.4508    1.5473 C.ar      1 <0>        -0.1138
     25 C21         2.0520   10.0825    1.4853 C.ar      1 <0>        -0.0793
     26 Cl1         1.5591   13.9105    0.4585 Cl        1 <0>        -0.0699
     27 H1          0.0026    0.0016   -0.2161 H         1 <0>         0.1219
     28 H2         -2.1518    1.1841   -0.2014 H         1 <0>         0.1253
     29 H3         -2.2390    3.6168   -0.0772 H         1 <0>         0.1402
     30 H4          2.1027    1.2334   -0.1279 H         1 <0>         0.1261
     31 H5          3.2939    3.3943   -0.0087 H         1 <0>         0.1337
     32 H6          3.2337    5.8210    0.1034 H         1 <0>         0.1349
     33 H7         -4.2694    8.2576    0.7282 H         1 <0>         0.1973
     34 H8          2.9077    7.6293    1.0748 H         1 <0>         0.0758
     35 H9          2.9325    7.7124   -0.7030 H         1 <0>         0.0754
     36 H10         2.1808    9.7043   -1.8644 H         1 <0>         0.1352
     37 H11         1.8418   12.1406   -1.7563 H         1 <0>         0.1364
     38 H12         1.7818   11.9414    2.5056 H         1 <0>         0.1361
     39 H13         2.1108    9.5038    2.3953 H         1 <0>         0.1352
     40 O3         -4.7092    5.5129   -2.3816 O.co2     1 <0>        -0.7309
@<TRIPOS>BOND
     1    1    6 ar
     2    1    2 ar
     3    1   27 1
     4    2    3 ar
     5    2   28 1
     6    3    4 ar
     7    3   29 1
     8    4   10 ar
     9    4    5 ar
    10    5    6 ar
    11    5    7 ar
    12    6   30 1
    13    7    8 ar
    14    7   31 1
    15    8    9 ar
    16    8   32 1
    17    9   10 ar
    18    9   18 1
    19   10   11 1
    20   11   15 1
    21   11   12 2
    22   12   13 1
    23   13   14 2
    24   13   16 1
    25   14   15 1
    26   14   33 1
    27   16   17 2
    28   16   40 1
    29   18   19 1
    30   19   20 1
    31   19   34 1
    32   19   35 1
    33   20   25 ar
    34   20   21 ar
    35   21   22 ar
    36   21   36 1
    37   22   23 ar
    38   22   37 1
    39   23   24 ar
    40   23   26 1
    41   24   25 ar
    42   24   38 1
    43   25   39 1
@<TRIPOS>MOLECULE
ZINC06006966
   38    41     0     0     0
SMALL
USER_CHARGES
7-bromo-2-(4-ethylphenyl)-3,5-dihydrochromeno[3,2-e]pyrimidine-4-thione
@<TRIPOS>ATOM
      1 C1         -6.6732    6.8080   -1.3419 C.3       1 <0>        -0.1480
      2 C2         -6.2160    6.5504    0.0952 C.3       1 <0>        -0.0852
      3 C3         -4.9008    5.8149    0.0798 C.ar      1 <0>        -0.0747
      4 C4         -3.7140    6.5263    0.0741 C.ar      1 <0>        -0.1330
      5 C5         -2.5065    5.8594    0.0595 C.ar      1 <0>        -0.0714
      6 C6         -2.4837    4.4635    0.0504 C.ar      1 <0>        -0.0304
      7 C7         -3.6850    3.7519    0.0508 C.ar      1 <0>        -0.0651
      8 C8         -4.8854    4.4314    0.0708 C.ar      1 <0>        -0.1308
      9 C9         -1.1941    3.7424    0.0342 C.ar      1 <0>         0.3757
     10 N1         -1.1920    2.3789    0.0206 N.ar      1 <0>        -0.5388
     11 C10        -0.0211    1.7077    0.0114 C.ar      1 <0>         0.3495
     12 S1          0.0021   -0.0041    0.0020 S.3       1 <0>        -0.7713
     13 C11         1.1760    2.4379    0.0039 C.ar      1 <0>        -0.2675
     14 C12         1.1196    3.8164    0.0131 C.ar      1 <0>         0.3516
     15 N2         -0.0734    4.4288    0.0285 N.ar      1 <0>        -0.5634
     16 O1          2.2457    4.5588    0.0064 O.3       1 <0>        -0.2345
     17 C13         3.4251    4.0122    0.3885 C.ar      1 <0>         0.1377
     18 C14         4.4671    4.8480    0.7747 C.ar      1 <0>        -0.1266
     19 C15         5.6768    4.3116    1.1665 C.ar      1 <0>        -0.0687
     20 C16         5.8548    2.9394    1.1753 C.ar      1 <0>        -0.1125
     21 C17         4.8207    2.1058    0.7918 C.ar      1 <0>        -0.0555
     22 C18         3.6061    2.6390    0.3985 C.ar      1 <0>        -0.1254
     23 C19         2.4928    1.7146   -0.0144 C.3       1 <0>        -0.0054
     24 Br1         7.5122    2.2043    1.7125 Br        1 <0>        -0.0547
     25 H1         -7.6332    7.3449   -1.3306 H         1 <0>         0.0551
     26 H2         -6.7959    5.8483   -1.8652 H         1 <0>         0.0569
     27 H3         -5.9192    7.4161   -1.8631 H         1 <0>         0.0561
     28 H4         -6.0933    7.5101    0.6185 H         1 <0>         0.0701
     29 H5         -6.9700    5.9424    0.6165 H         1 <0>         0.0708
     30 H6         -3.7330    7.6061    0.0808 H         1 <0>         0.1212
     31 H7         -1.5809    6.4159    0.0547 H         1 <0>         0.1350
     32 H8         -3.6744    2.6721    0.0393 H         1 <0>         0.1398
     33 H9         -5.8153    3.8822    0.0756 H         1 <0>         0.1226
     34 H10         4.3296    5.9192    0.7677 H         1 <0>         0.1428
     35 H11         6.4844    4.9628    1.4665 H         1 <0>         0.1404
     36 H12         4.9613    1.0350    0.7995 H         1 <0>         0.1409
     37 H13         2.4547    0.8659    0.6844 H         1 <0>         0.1074
     38 H14         2.6936    1.3442   -1.0305 H         1 <0>         0.0893
@<TRIPOS>BOND
     1    1    2 1
     2    1   25 1
     3    1   26 1
     4    1   27 1
     5    2    3 1
     6    2   28 1
     7    2   29 1
     8    3    8 ar
     9    3    4 ar
    10    4    5 ar
    11    4   30 1
    12    5    6 ar
    13    5   31 1
    14    6    7 ar
    15    6    9 1
    16    7    8 ar
    17    7   32 1
    18    8   33 1
    19    9   15 ar
    20    9   10 ar
    21   10   11 ar
    22   11   12 1
    23   11   13 ar
    24   13   23 1
    25   13   14 ar
    26   14   15 ar
    27   14   16 1
    28   16   17 1
    29   17   22 ar
    30   17   18 ar
    31   18   19 ar
    32   18   34 1
    33   19   20 ar
    34   19   35 1
    35   20   21 ar
    36   20   24 1
    37   21   22 ar
    38   21   36 1
    39   22   23 1
    40   23   37 1
    41   23   38 1
@<TRIPOS>MOLECULE
ZINC03129563
   40    42     0     0     0
SMALL
USER_CHARGES
4-(4-tert-butylphenyl)-3-(2-chlorophenyl)-1H-1,2,4-triazole-5-thione
@<TRIPOS>ATOM
      1 C1          8.6592   -2.2486   -0.7763 C.3       1 <0>        -0.1405
      2 C2          7.7033   -1.0583   -0.6740 C.3       1 <0>        -0.0262
      3 C3          7.8167   -0.2031   -1.9375 C.3       1 <0>        -0.1451
      4 C4          8.0695   -0.2137    0.5481 C.3       1 <0>        -0.1384
      5 C5          6.2894   -1.5602   -0.5323 C.ar      1 <0>        -0.0717
      6 C6          5.9454   -2.3594    0.5425 C.ar      1 <0>        -0.1064
      7 C7          4.6504   -2.8206    0.6753 C.ar      1 <0>        -0.0832
      8 C8          3.6934   -2.4814   -0.2720 C.ar      1 <0>         0.1506
      9 C9          4.0434   -1.6834   -1.3532 C.ar      1 <0>        -0.1046
     10 C10         5.3389   -1.2210   -1.4776 C.ar      1 <0>        -0.1134
     11 N1          2.3792   -2.9480   -0.1403 N.pl3     1 <0>        -0.4606
     12 C11         1.2648   -2.1700    0.1132 C.2       1 <0>         0.1963
     13 N2          0.2198   -2.9479    0.1633 N.2       1 <0>        -0.2846
     14 N3          0.6477   -4.2645   -0.0550 N.2       1 <0>        -0.3778
     15 C12         1.9839   -4.2331   -0.2356 C.2       1 <0>         0.3971
     16 S1          2.9946   -5.5814   -0.5382 S.3       1 <0>        -0.7624
     17 C13         1.2584   -0.7013    0.2913 C.ar      1 <0>         0.0154
     18 C14         2.1809   -0.0949    1.1445 C.ar      1 <0>        -0.0853
     19 C15         2.1696    1.2750    1.3067 C.ar      1 <0>        -0.1148
     20 C16         1.2460    2.0482    0.6255 C.ar      1 <0>        -0.1064
     21 C17         0.3285    1.4544   -0.2219 C.ar      1 <0>        -0.1141
     22 C18         0.3290    0.0838   -0.3933 C.ar      1 <0>        -0.0089
     23 Cl1        -0.8228   -0.6605   -1.4577 Cl        1 <0>        -0.0476
     24 H1          8.5776   -2.8635    0.1322 H         1 <0>         0.0585
     25 H2          9.6912   -1.8822   -0.8797 H         1 <0>         0.0553
     26 H3          8.3959   -2.8558   -1.6549 H         1 <0>         0.0586
     27 H4          7.1295    0.6526   -1.8639 H         1 <0>         0.0585
     28 H5          7.5534   -0.8103   -2.8161 H         1 <0>         0.0597
     29 H6          8.8487    0.1633   -2.0409 H         1 <0>         0.0556
     30 H7          7.3823    0.6420    0.6216 H         1 <0>         0.0561
     31 H8          9.1015    0.1526    0.4447 H         1 <0>         0.0556
     32 H9          7.9880   -0.8286    1.4565 H         1 <0>         0.0576
     33 H10         6.6901   -2.6230    1.2789 H         1 <0>         0.1232
     34 H11         4.3823   -3.4448    1.5150 H         1 <0>         0.1243
     35 H12         3.3023   -1.4212   -2.0938 H         1 <0>         0.1177
     36 H13         5.6107   -0.5969   -2.3161 H         1 <0>         0.1274
     37 H14         2.9027   -0.6968    1.6766 H         1 <0>         0.1285
     38 H15         2.8805    1.7447    1.9703 H         1 <0>         0.1299
     39 H16         1.2417    3.1203    0.7563 H         1 <0>         0.1311
     40 H17        -0.3899    2.0635   -0.7503 H         1 <0>         0.1350
@<TRIPOS>BOND
     1    1    2 1
     2    1   24 1
     3    1   25 1
     4    1   26 1
     5    2    3 1
     6    2    4 1
     7    2    5 1
     8    3   27 1
     9    3   28 1
    10    3   29 1
    11    4   30 1
    12    4   31 1
    13    4   32 1
    14    5   10 ar
    15    5    6 ar
    16    6    7 ar
    17    6   33 1
    18    7    8 ar
    19    7   34 1
    20    8    9 ar
    21    8   11 1
    22    9   10 ar
    23    9   35 1
    24   10   36 1
    25   11   15 1
    26   11   12 1
    27   12   13 2
    28   12   17 1
    29   13   14 1
    30   14   15 2
    31   15   16 1
    32   17   22 ar
    33   17   18 ar
    34   18   19 ar
    35   18   37 1
    36   19   20 ar
    37   19   38 1
    38   20   21 ar
    39   20   39 1
    40   21   22 ar
    41   21   40 1
    42   22   23 1
@<TRIPOS>MOLECULE
ZINC40147934
   52    55     0     0     0
SMALL
USER_CHARGES

@<TRIPOS>ATOM
      1 C1          1.2440   -1.4884    2.0328 C.3       1 <0>        -0.1527
      2 C2          0.3511   -1.5916    0.7947 C.3       1 <0>        -0.1258
      3 C3          1.1879   -2.0517   -0.4007 C.3       1 <0>        -0.1129
      4 C4          0.2949   -2.1549   -1.6388 C.3       1 <0>        -0.0789
      5 C5          1.1191   -2.6081   -2.8162 C.ar      1 <0>        -0.0797
      6 C6          1.7435   -1.6736   -3.6219 C.ar      1 <0>        -0.1182
      7 C7          2.5000   -2.0856   -4.7014 C.ar      1 <0>        -0.1115
      8 C8          2.6332   -3.4403   -4.9775 C.ar      1 <0>         0.1536
      9 C9          2.0047   -4.3764   -4.1663 C.ar      1 <0>        -0.0631
     10 C10         1.2540   -3.9578   -3.0852 C.ar      1 <0>        -0.1167
     11 N1          3.3979   -3.8609   -6.0700 N.pl3     1 <0>        -0.5710
     12 C11         4.8543   -3.9918   -5.9554 C.3       1 <0>         0.4268
     13 H1          5.1929   -3.4918   -5.0479 H         1 <0>         0.1066
     14 N2          5.4991   -3.3793   -7.1183 N.am      1 <0>        -0.7433
     15 C12         4.8818   -3.3643   -8.3165 C.2       1 <0>         0.5965
     16 O1          5.4427   -2.8912   -9.2884 O.2       1 <0>        -0.5652
     17 C13         3.5327   -3.9206   -8.4430 C.2       1 <0>        -0.3271
     18 C14         2.7983   -4.1639   -7.2672 C.2       1 <0>         0.4541
     19 S1          1.1674   -4.8281   -7.3270 S.3       1 <0>        -0.7814
     20 C15         2.9764   -4.2138   -9.7295 C.1       1 <0>         0.3369
     21 N3          2.5350   -4.4465  -10.7500 N.1       1 <0>        -0.4976
     22 C16         5.2226   -5.4517   -5.8905 C.ar      1 <0>        -0.1103
     23 C17         5.5644   -6.1221   -7.0248 C.ar      1 <0>        -0.0730
     24 C18         5.9078   -7.4718   -6.9845 C.ar      1 <0>        -0.1115
     25 C19         5.9112   -8.1594   -5.8096 C.ar      1 <0>        -0.1031
     26 C20         5.5641   -7.5010   -4.6180 C.ar      1 <0>        -0.0544
     27 C21         5.2207   -6.1264   -4.6581 C.ar      1 <0>        -0.0254
     28 C22         4.8792   -5.4665   -3.4650 C.ar      1 <0>        -0.1028
     29 C23         4.8884   -6.1525   -2.2898 C.ar      1 <0>        -0.1143
     30 C24         5.2324   -7.5026   -2.2494 C.ar      1 <0>        -0.1218
     31 C25         5.5557   -8.1776   -3.3861 C.ar      1 <0>        -0.1039
     32 H2          1.6802   -2.4638    2.2485 H         1 <0>         0.0532
     33 H3          2.0402   -0.7673    1.8475 H         1 <0>         0.0530
     34 H4          0.6479   -1.1606    2.8844 H         1 <0>         0.0511
     35 H5         -0.4451   -2.3126    0.9800 H         1 <0>         0.0606
     36 H6         -0.0850   -0.6162    0.5790 H         1 <0>         0.0602
     37 H7          1.9840   -1.3307   -0.5860 H         1 <0>         0.0626
     38 H8          1.6240   -3.0271   -0.1850 H         1 <0>         0.0633
     39 H9         -0.5012   -2.8759   -1.4535 H         1 <0>         0.0699
     40 H10        -0.1412   -1.1795   -1.8545 H         1 <0>         0.0692
     41 H11         1.6393   -0.6204   -3.4068 H         1 <0>         0.1195
     42 H12         2.9871   -1.3552   -5.3304 H         1 <0>         0.1205
     43 H13         2.1060   -5.4305   -4.3785 H         1 <0>         0.1248
     44 H14         0.7685   -4.6853   -2.4516 H         1 <0>         0.1191
     45 H15         6.3784   -2.9804   -7.0257 H         1 <0>         0.4038
     46 H16         5.5690   -5.6001   -7.9703 H         1 <0>         0.1273
     47 H17         6.1750   -7.9803   -7.8991 H         1 <0>         0.1235
     48 H18         6.1790   -9.2055   -5.7937 H         1 <0>         0.1249
     49 H19         4.6112   -4.4204   -3.4809 H         1 <0>         0.1230
     50 H20         4.6256   -5.6430   -1.3745 H         1 <0>         0.1197
     51 H21         5.2321   -8.0235   -1.3033 H         1 <0>         0.1187
     52 H22         5.8193   -9.2239   -3.3396 H         1 <0>         0.1232
@<TRIPOS>BOND
     1    1    2 1
     2    1   32 1
     3    1   33 1
     4    1   34 1
     5    2    3 1
     6    2   35 1
     7    2   36 1
     8    3    4 1
     9    3   37 1
    10    3   38 1
    11    4    5 1
    12    4   39 1
    13    4   40 1
    14    5   10 ar
    15    5    6 ar
    16    6    7 ar
    17    6   41 1
    18    7    8 ar
    19    7   42 1
    20    8    9 ar
    21    8   11 1
    22    9   10 ar
    23    9   43 1
    24   10   44 1
    25   11   18 1
    26   11   12 1
    27   12   13 1
    28   12   14 1
    29   12   22 1
    30   14   15 am
    31   14   45 1
    32   15   16 2
    33   15   17 1
    34   17   18 2
    35   17   20 1
    36   18   19 1
    37   20   21 3
    38   22   27 ar
    39   22   23 ar
    40   23   24 ar
    41   23   46 1
    42   24   25 ar
    43   24   47 1
    44   25   26 ar
    45   25   48 1
    46   26   31 ar
    47   26   27 ar
    48   27   28 ar
    49   28   29 ar
    50   28   49 1
    51   29   30 ar
    52   29   50 1
    53   30   31 ar
    54   30   51 1
    55   31   52 1
@<TRIPOS>MOLECULE
ZINC12418185
   60    63     0     0     0
SMALL
USER_CHARGES

@<TRIPOS>ATOM
      1 C1          0.1910    1.7410   -0.1280 C.3       1 <0>        -0.1314
      2 C2         -0.0222    0.2266   -0.0841 C.3       1 <0>        -0.1330
      3 C3          0.6910   -0.4150   -1.2464 C.2       1 <0>         0.3347
      4 N1          1.9558   -0.6834   -1.1622 N.2       1 <0>        -0.5541
      5 C4          2.6821   -0.4075    0.0799 C.3       1 <0>         0.0406
      6 C5          3.1546   -1.7250    0.6978 C.3       1 <0>        -0.0349
      7 C6          3.9017   -1.4412    1.9754 C.2       1 <0>        -0.1519
      8 C7          5.2192   -1.2146    2.0965 C.2       1 <0>         0.0729
      9 N2          5.5362   -0.9951    3.4094 N.pl3     1 <0>        -0.5959
     10 H1          6.4276   -0.8094    3.7438 H         1 <0>         0.4102
     11 C8          4.4015   -1.0773    4.1850 C.ar      1 <0>         0.0922
     12 C9          3.3268   -1.3540    3.3200 C.ar      1 <0>        -0.0935
     13 C10         2.0358   -1.4876    3.8338 C.ar      1 <0>        -0.0650
     14 C11         1.8216   -1.3450    5.1760 C.ar      1 <0>        -0.1185
     15 C12         2.8777   -1.0680    6.0328 C.ar      1 <0>        -0.1002
     16 C13         4.1614   -0.9413    5.5482 C.ar      1 <0>        -0.1324
     17 C14         0.4276   -1.4893    5.7300 C.3       1 <0>        -0.1080
     18 C15         6.2035   -1.2039    0.9554 C.3       1 <0>        -0.0917
     19 C16        -0.0490   -0.7365   -2.4768 C.2       1 <0>        -0.5201
     20 C17         0.1168    0.0661   -3.6051 C.2       1 <0>         0.3979
     21 C18        -0.6283   -0.2371   -4.8787 C.3       1 <0>        -0.1433
     22 C19        -0.8841   -1.7439   -4.9701 C.3       1 <0>        -0.0353
     23 H2          0.0678   -2.2739   -5.0045 H         1 <0>         0.0797
     24 C20        -1.6755   -2.1916   -3.7382 C.3       1 <0>        -0.1418
     25 C21        -0.8992   -1.8416   -2.4956 C.2       1 <0>         0.3944
     26 O1         -1.0192   -2.5294   -1.4938 O.2       1 <0>        -0.5864
     27 C22        -1.6748   -2.0463   -6.2168 C.ar      1 <0>        -0.0612
     28 C23        -2.9230   -1.4805   -6.3979 C.ar      1 <0>        -0.1145
     29 C24        -3.6483   -1.7579   -7.5415 C.ar      1 <0>        -0.1209
     30 C25        -3.1252   -2.6007   -8.5043 C.ar      1 <0>        -0.1349
     31 C26        -1.8767   -3.1658   -8.3236 C.ar      1 <0>        -0.1214
     32 C27        -1.1495   -2.8850   -7.1820 C.ar      1 <0>        -0.1191
     33 O2          0.8728    1.0239   -3.5601 O.3       1 <0>        -0.5788
     34 H3          1.2570    1.9598   -0.0658 H         1 <0>         0.0447
     35 H4         -0.2073    2.1371   -1.0621 H         1 <0>         0.0603
     36 H5         -0.3248    2.2050    0.7127 H         1 <0>         0.0439
     37 H6          0.3762   -0.1695    0.8500 H         1 <0>         0.0577
     38 H7         -1.0882    0.0078   -0.1463 H         1 <0>         0.0705
     39 H8          3.5449    0.2226   -0.1361 H         1 <0>         0.0593
     40 H9          2.0230    0.1063    0.7797 H         1 <0>         0.0390
     41 H10         2.2918   -2.3551    0.9137 H         1 <0>         0.0654
     42 H11         3.8136   -2.2388   -0.0020 H         1 <0>         0.0711
     43 H12         1.2090   -1.7024    3.1729 H         1 <0>         0.1219
     44 H13         2.6925   -0.9574    7.0911 H         1 <0>         0.1209
     45 H14         4.9763   -0.7244    6.2229 H         1 <0>         0.1155
     46 H15         0.2482   -2.5311    5.9955 H         1 <0>         0.0647
     47 H16         0.3229   -0.8650    6.6173 H         1 <0>         0.0609
     48 H17        -0.2965   -1.1762    4.9779 H         1 <0>         0.0651
     49 H18         6.2796   -0.1948    0.5506 H         1 <0>         0.0765
     50 H19         7.1807   -1.5256    1.3156 H         1 <0>         0.0629
     51 H20         5.8622   -1.8838    0.1748 H         1 <0>         0.0878
     52 H21        -1.5801    0.2941   -4.8785 H         1 <0>         0.0738
     53 H22        -0.0327    0.0833   -5.7335 H         1 <0>         0.0683
     54 H23        -2.6412   -1.6864   -3.7229 H         1 <0>         0.0748
     55 H24        -1.8293   -3.2700   -3.7769 H         1 <0>         0.0684
     56 H25        -3.3316   -0.8220   -5.6457 H         1 <0>         0.1223
     57 H26        -4.6238   -1.3164   -7.6827 H         1 <0>         0.1172
     58 H27        -3.6922   -2.8180   -9.3974 H         1 <0>         0.1150
     59 H28        -1.4681   -3.8246   -9.0757 H         1 <0>         0.1167
     60 H29        -0.1725   -3.3236   -7.0426 H         1 <0>         0.1207
@<TRIPOS>BOND
     1    1    2 1
     2    1   34 1
     3    1   35 1
     4    1   36 1
     5    2    3 1
     6    2   37 1
     7    2   38 1
     8    3    4 2
     9    3   19 1
    10    4    5 1
    11    5    6 1
    12    5   39 1
    13    5   40 1
    14    6    7 1
    15    6   41 1
    16    6   42 1
    17    7   12 1
    18    7    8 2
    19    8    9 1
    20    8   18 1
    21    9   10 1
    22    9   11 1
    23   11   16 ar
    24   11   12 ar
    25   12   13 ar
    26   13   14 ar
    27   13   43 1
    28   14   15 ar
    29   14   17 1
    30   15   16 ar
    31   15   44 1
    32   16   45 1
    33   17   46 1
    34   17   47 1
    35   17   48 1
    36   18   49 1
    37   18   50 1
    38   18   51 1
    39   19   25 1
    40   19   20 2
    41   20   21 1
    42   20   33 1
    43   21   22 1
    44   21   52 1
    45   21   53 1
    46   22   23 1
    47   22   24 1
    48   22   27 1
    49   24   25 1
    50   24   54 1
    51   24   55 1
    52   25   26 2
    53   27   32 ar
    54   27   28 ar
    55   28   29 ar
    56   28   56 1
    57   29   30 ar
    58   29   57 1
    59   30   31 ar
    60   30   58 1
    61   31   32 ar
    62   31   59 1
    63   32   60 1
@<TRIPOS>MOLECULE
ZINC05610650
   43    47     0     0     0
SMALL
USER_CHARGES

@<TRIPOS>ATOM
      1 C1         -0.0685    2.6409    1.7347 C.ar      1 <0>        -0.1169
      2 C2          1.1795    3.2292    1.5413 C.ar      1 <0>        -0.1209
      3 C3          2.2865    2.4833    1.2754 C.ar      1 <0>        -0.0987
      4 C4          2.1783    1.0860    1.1923 C.ar      1 <0>        -0.0362
      5 C5          0.8686    0.4646    1.3954 C.ar      1 <0>        -0.0479
      6 C6         -0.2399    1.2945    1.6674 C.ar      1 <0>        -0.1088
      7 C7          0.7265   -0.9223    1.3192 C.ar      1 <0>        -0.0950
      8 C8          1.8363   -1.7252    1.0484 C.ar      1 <0>        -0.0399
      9 C9          1.7147   -3.1288    0.9668 C.ar      1 <0>        -0.1207
     10 C10         2.8140   -3.8823    0.7012 C.ar      1 <0>        -0.1039
     11 C11         4.0664   -3.3042    0.5063 C.ar      1 <0>        -0.1169
     12 C12         4.2486   -1.9570    0.5722 C.ar      1 <0>        -0.0807
     13 C13         3.1535   -1.1211    0.8426 C.ar      1 <0>        -0.0363
     14 C14         3.3082    0.2822    0.9172 C.ar      1 <0>        -0.0251
     15 C15         4.5773    0.8742    0.7202 C.2       1 <0>        -0.0316
     16 C16         5.6616    0.4061    1.4025 C.2       1 <0>        -0.1750
     17 C17         7.0695    0.8590    1.3701 C.2       1 <0>         0.5282
     18 O1          7.4317    1.7852    0.6613 O.2       1 <0>        -0.5341
     19 N1          7.9100    0.2103    2.1464 N.2       1 <0>        -0.7118
     20 C18         7.5307   -0.7947    2.9194 C.2       1 <0>         0.4374
     21 S1          5.7793   -0.9228    2.5936 S.3       1 <0>        -0.1019
     22 N2          8.2963   -1.5510    3.7697 N.2       1 <0>        -0.5686
     23 C19         9.6122   -1.1706    4.0510 C.ar      1 <0>         0.1674
     24 C20         9.9996    0.1553    3.9046 C.ar      1 <0>        -0.1460
     25 C21        11.2997    0.5282    4.1836 C.ar      1 <0>        -0.0937
     26 C22        12.2163   -0.4176    4.6084 C.ar      1 <0>        -0.0812
     27 C23        11.8331   -1.7393    4.7547 C.ar      1 <0>        -0.0975
     28 C24        10.5328   -2.1168    4.4830 C.ar      1 <0>        -0.1325
     29 Cl1        13.8499    0.0546    4.9577 Cl        1 <0>        -0.1027
     30 H1         -0.9199    3.2702    1.9477 H         1 <0>         0.1191
     31 H2          1.2707    4.3035    1.6035 H         1 <0>         0.1208
     32 H3          3.2426    2.9636    1.1287 H         1 <0>         0.1304
     33 H4         -1.2177    0.8626    1.8211 H         1 <0>         0.1260
     34 H5         -0.2426   -1.3745    1.4701 H         1 <0>         0.1305
     35 H6          0.7547   -3.6009    1.1148 H         1 <0>         0.1254
     36 H7          2.7143   -4.9560    0.6401 H         1 <0>         0.1197
     37 H8          4.9137   -3.9407    0.2982 H         1 <0>         0.1219
     38 H9          5.2299   -1.5334    0.4173 H         1 <0>         0.1359
     39 H10         4.6880    1.6970    0.0294 H         1 <0>         0.1501
     40 H11         9.2849    0.8937    3.5725 H         1 <0>         0.1459
     41 H12        11.6015    1.5590    4.0699 H         1 <0>         0.1190
     42 H13        12.5506   -2.4756    5.0856 H         1 <0>         0.1222
     43 H14        10.2330   -3.1475    4.6020 H         1 <0>         0.1246
@<TRIPOS>BOND
     1    1    6 ar
     2    1    2 ar
     3    1   30 1
     4    2    3 ar
     5    2   31 1
     6    3    4 ar
     7    3   32 1
     8    4   14 ar
     9    4    5 ar
    10    5    6 ar
    11    5    7 ar
    12    6   33 1
    13    7    8 ar
    14    7   34 1
    15    8   13 ar
    16    8    9 ar
    17    9   10 ar
    18    9   35 1
    19   10   11 ar
    20   10   36 1
    21   11   12 ar
    22   11   37 1
    23   12   13 ar
    24   12   38 1
    25   13   14 ar
    26   14   15 1
    27   15   16 2
    28   15   39 1
    29   16   21 1
    30   16   17 1
    31   17   18 2
    32   17   19 1
    33   19   20 2
    34   20   21 1
    35   20   22 1
    36   22   23 1
    37   23   28 ar
    38   23   24 ar
    39   24   25 ar
    40   24   40 1
    41   25   26 ar
    42   25   41 1
    43   26   27 ar
    44   26   29 1
    45   27   28 ar
    46   27   42 1
    47   28   43 1
@<TRIPOS>MOLECULE
ZINC05593947
   38    41     0     0     0
SMALL
USER_CHARGES
4-[2-chloro-5-(trifluoromethyl)phenyl]-5-[(1R,2R)-2-phenylcyclopropyl]-1,2,4-triazole-3-thiol
@<TRIPOS>ATOM
      1 C1          1.1862    1.8018   -0.0033 C.ar      1 <0>        -0.1312
      2 C2          0.0003    1.0915    0.0092 C.ar      1 <0>        -0.1180
      3 C3         -1.2077    1.7634    0.0193 C.ar      1 <0>        -0.1254
      4 C4         -1.2298    3.1455    0.0268 C.ar      1 <0>        -0.0654
      5 C5         -0.0440    3.8558    0.0152 C.ar      1 <0>        -0.1170
      6 C6          1.1640    3.1840    0.0002 C.ar      1 <0>        -0.1166
      7 C7         -2.5468    3.8779    0.0427 C.3       1 <0>        -0.1346
      8 H1         -2.1006    4.7649    0.5161 H         1 <0>         0.1284
      9 C8         -3.8141    3.0482    0.2584 C.3       1 <0>        -0.1138
     10 C9         -3.5068    3.6307   -1.1227 C.3       1 <0>        -0.0062
     11 H2         -3.4154    3.2260   -2.1415 H         1 <0>         0.1300
     12 C10        -4.3460    4.7914   -1.5912 C.2       1 <0>         0.1304
     13 N1         -5.2138    5.4540   -0.8798 N.2       1 <0>        -0.2799
     14 N2         -5.7447    6.3873   -1.5861 N.2       1 <0>        -0.3431
     15 C11        -5.2480    6.3661   -2.8013 C.2       1 <0>         0.3900
     16 N3         -4.3381    5.3456   -2.8437 N.pl3     1 <0>        -0.4622
     17 C12        -3.5594    4.9493   -3.9412 C.ar      1 <0>         0.1651
     18 C13        -4.0400    3.9943   -4.8264 C.ar      1 <0>        -0.0391
     19 C14        -3.2714    3.6063   -5.9064 C.ar      1 <0>        -0.1776
     20 C15        -2.0235    4.1677   -6.1066 C.ar      1 <0>        -0.0535
     21 C16        -1.5410    5.1189   -5.2270 C.ar      1 <0>        -0.1092
     22 C17        -2.3081    5.5160   -4.1476 C.ar      1 <0>         0.0165
     23 Cl1        -1.7051    6.7156   -3.0472 Cl        1 <0>        -0.0324
     24 C18        -3.7930    2.5694   -6.8675 C.3       1 <0>         0.5145
     25 F1         -4.5007    3.2010   -7.8959 F         1 <0>        -0.1709
     26 F2         -2.7198    1.8549   -7.4105 F         1 <0>        -0.1766
     27 F3         -4.6429    1.6898   -6.1885 F         1 <0>        -0.1748
     28 S1         -5.6724    7.4476   -4.1260 S.3       1 <0>        -0.7936
     29 H3          2.1299    1.2769   -0.0154 H         1 <0>         0.1174
     30 H4          0.0177    0.0116    0.0064 H         1 <0>         0.1185
     31 H5         -2.1342    1.2084    0.0246 H         1 <0>         0.1251
     32 H6         -0.0613    4.9357    0.0177 H         1 <0>         0.1196
     33 H7          2.0904    3.7389   -0.0092 H         1 <0>         0.1189
     34 H8         -3.5380    2.0378    0.5943 H         1 <0>         0.1066
     35 H9         -4.4420    3.5298    1.0224 H         1 <0>         0.1140
     36 H10        -5.0144    3.5552   -4.6709 H         1 <0>         0.1469
     37 H11        -1.4245    3.8622   -6.9517 H         1 <0>         0.1484
     38 H12        -0.5659    5.5553   -5.3857 H         1 <0>         0.1507
@<TRIPOS>BOND
     1    1    6 ar
     2    1    2 ar
     3    1   29 1
     4    2    3 ar
     5    2   30 1
     6    3    4 ar
     7    3   31 1
     8    4    5 ar
     9    4    7 1
    10    5    6 ar
    11    5   32 1
    12    6   33 1
    13    7    8 1
    14    7   10 1
    15    7    9 1
    16    9   10 1
    17    9   34 1
    18    9   35 1
    19   10   11 1
    20   10   12 1
    21   12   16 1
    22   12   13 2
    23   13   14 1
    24   14   15 2
    25   15   28 1
    26   15   16 1
    27   16   17 1
    28   17   22 ar
    29   17   18 ar
    30   18   19 ar
    31   18   36 1
    32   19   20 ar
    33   19   24 1
    34   20   21 ar
    35   20   37 1
    36   21   22 ar
    37   21   38 1
    38   22   23 1
    39   24   25 1
    40   24   26 1
    41   24   27 1
@<TRIPOS>MOLECULE
ZINC03635914
   44    47     0     0     0
SMALL
USER_CHARGES

@<TRIPOS>ATOM
      1 C1          0.3239    1.0176    0.6414 C.3       1 <0>        -0.1648
      2 C2          0.1238   -0.4747    0.3697 C.3       1 <0>         0.1330
      3 C3          0.6774   -1.2855    1.5431 C.3       1 <0>        -0.1644
      4 N1         -1.3056   -0.7553    0.2134 N.pl3     1 <0>        -0.4716
      5 C4         -2.2478   -0.5225    1.1611 C.2       1 <0>         0.1545
      6 C5         -3.4765   -0.8964    0.6906 C.2       1 <0>        -0.1772
      7 C6         -3.2616   -1.4068   -0.6770 C.ar      1 <0>        -0.0755
      8 C7         -1.8838   -1.2881   -0.9207 C.ar      1 <0>         0.0872
      9 C8         -1.3714   -1.6918   -2.1490 C.ar      1 <0>        -0.1262
     10 C9         -2.2155   -2.1992   -3.1131 C.ar      1 <0>        -0.1130
     11 C10        -3.5766   -2.3123   -2.8720 C.ar      1 <0>        -0.1478
     12 C11        -4.1023   -1.9244   -1.6583 C.ar      1 <0>        -0.0770
     13 C12        -4.7506   -0.8083    1.4023 C.2       1 <0>         0.0421
     14 C13        -4.9725    0.2110    2.2776 C.2       1 <0>        -0.2170
     15 C14        -4.1570    1.4094    2.5604 C.2       1 <0>         0.5315
     16 O1         -3.1033    1.6223    1.9800 O.2       1 <0>        -0.5421
     17 N2         -4.6259    2.2356    3.4703 N.2       1 <0>        -0.7140
     18 C15        -5.7657    2.0173    4.1062 C.2       1 <0>         0.4516
     19 S1         -6.3372    0.4786    3.4021 S.3       1 <0>        -0.1461
     20 N3         -6.3662    2.7893    5.0690 N.2       1 <0>        -0.5772
     21 C16        -5.8708    4.0659    5.3508 C.ar      1 <0>         0.1620
     22 C17        -5.1569    4.7642    4.3853 C.ar      1 <0>        -0.1550
     23 C18        -4.6688    6.0251    4.6669 C.ar      1 <0>        -0.1084
     24 C19        -4.8903    6.5925    5.9085 C.ar      1 <0>        -0.1740
     25 C20        -5.6003    5.8999    6.8720 C.ar      1 <0>        -0.1117
     26 C21        -6.0964    4.6412    6.5949 C.ar      1 <0>        -0.1446
     27 H1          1.3874    1.2263    0.7576 H         1 <0>         0.0694
     28 H2         -0.0705    1.5952   -0.1946 H         1 <0>         0.0625
     29 H3         -0.2026    1.2944    1.5548 H         1 <0>         0.0751
     30 H4          0.6503   -0.7516   -0.5437 H         1 <0>         0.0927
     31 H5          0.1508   -1.0087    2.4565 H         1 <0>         0.0663
     32 H6          0.5348   -2.3487    1.3495 H         1 <0>         0.0617
     33 H7          1.7409   -1.0768    1.6594 H         1 <0>         0.0736
     34 H8         -2.0568   -0.1055    2.1388 H         1 <0>         0.1786
     35 H9         -0.3131   -1.6073   -2.3473 H         1 <0>         0.1132
     36 H10        -1.8133   -2.5115   -4.0655 H         1 <0>         0.1193
     37 H11        -4.2267   -2.7114   -3.6365 H         1 <0>         0.1184
     38 H12        -5.1627   -2.0124   -1.4732 H         1 <0>         0.1201
     39 H13        -5.5158   -1.5516    1.2338 H         1 <0>         0.1255
     40 H14        -4.9833    4.3215    3.4157 H         1 <0>         0.1353
     41 H15        -4.1133    6.5684    3.9169 H         1 <0>         0.1058
     42 H16        -4.5076    7.5787    6.1261 H         1 <0>         0.1052
     43 H17        -5.7709    6.3456    7.8409 H         1 <0>         0.1096
     44 H18        -6.6552    4.1028    7.3461 H         1 <0>         0.1134
@<TRIPOS>BOND
     1    1    2 1
     2    1   27 1
     3    1   28 1
     4    1   29 1
     5    2    3 1
     6    2    4 1
     7    2   30 1
     8    3   31 1
     9    3   32 1
    10    3   33 1
    11    4    8 1
    12    4    5 1
    13    5    6 2
    14    5   34 1
    15    6    7 1
    16    6   13 1
    17    7   12 ar
    18    7    8 ar
    19    8    9 ar
    20    9   10 ar
    21    9   35 1
    22   10   11 ar
    23   10   36 1
    24   11   12 ar
    25   11   37 1
    26   12   38 1
    27   13   14 2
    28   13   39 1
    29   14   19 1
    30   14   15 1
    31   15   16 2
    32   15   17 1
    33   17   18 2
    34   18   19 1
    35   18   20 1
    36   20   21 1
    37   21   26 ar
    38   21   22 ar
    39   22   23 ar
    40   22   40 1
    41   23   24 ar
    42   23   41 1
    43   24   25 ar
    44   24   42 1
    45   25   26 ar
    46   25   43 1
    47   26   44 1
@<TRIPOS>MOLECULE
ZINC14755494
   36    38     0     0     0
SMALL
USER_CHARGES

@<TRIPOS>ATOM
      1 C1         -0.0187    1.5258    0.0104 C.3       1 <0>        -0.1492
      2 C2          0.0021   -0.0041    0.0020 C.3       1 <0>        -0.1137
      3 C3          0.7421   -0.5109    1.2415 C.3       1 <0>        -0.0580
      4 C4          0.7625   -2.0177    1.2333 C.ar      1 <0>         0.1779
      5 C5          1.9608   -2.7009    1.3278 C.ar      1 <0>        -0.3340
      6 C6          1.9349   -4.0948    1.3164 C.ar      1 <0>         0.4443
      7 O1          3.0861   -4.8040    1.4074 O.3       1 <0>        -0.7031
      8 N1          0.7670   -4.7175    1.2157 N.ar      1 <0>        -0.6146
      9 C7         -0.3609   -4.0274    1.1270 C.ar      1 <0>         0.3320
     10 N2         -0.3674   -2.7019    1.1408 N.ar      1 <0>        -0.5820
     11 S1         -1.8899   -4.8931    0.9947 S.3       1 <0>        -0.0392
     12 C8         -1.4081   -6.6417    1.0229 C.3       1 <0>        -0.0296
     13 C9         -2.6394   -7.5038    0.9153 C.2       1 <0>         0.0800
     14 C10        -3.2946   -7.8962    2.0378 C.2       1 <0>        -0.1749
     15 S2         -4.6231   -8.8589    1.3260 S.3       1 <0>        -0.0005
     16 C11        -4.1619   -8.6344   -0.3868 C.2       1 <0>         0.1712
     17 N3         -3.0835   -7.8723   -0.2655 N.2       1 <0>        -0.4804
     18 C12        -4.8108   -9.1540   -1.6088 C.2       1 <0>        -0.0552
     19 C13        -5.9583   -9.9402   -1.5283 C.2       1 <0>        -0.1403
     20 C14        -6.5222  -10.3964   -2.6683 C.2       1 <0>        -0.1709
     21 S3         -5.4424   -9.7264   -3.9213 S.3       1 <0>         0.0656
     22 C15        -4.3020   -8.8698   -2.8481 C.2       1 <0>        -0.1085
     23 H1          1.0039    1.9031    0.0027 H         1 <0>         0.0501
     24 H2         -0.5459    1.8868   -0.8726 H         1 <0>         0.0500
     25 H3         -0.5289    1.8773    0.9072 H         1 <0>         0.0518
     26 H4         -1.0205   -0.3814    0.0098 H         1 <0>         0.0728
     27 H5          0.5123   -0.3556   -0.8948 H         1 <0>         0.0562
     28 H6          1.7647   -0.1336    1.2338 H         1 <0>         0.0696
     29 H7          0.2319   -0.1594    2.1383 H         1 <0>         0.0725
     30 H8          2.8959   -2.1667    1.4084 H         1 <0>         0.1127
     31 H9         -0.7447   -6.8493    0.1834 H         1 <0>         0.1072
     32 H10        -0.8914   -6.8611    1.9573 H         1 <0>         0.1065
     33 H11        -3.0743   -7.6855    3.0739 H         1 <0>         0.2037
     34 H12        -6.3907  -10.1818   -0.5686 H         1 <0>         0.1386
     35 H13        -7.4022  -11.0106   -2.7902 H         1 <0>         0.1920
     36 H14        -3.4347   -8.2813   -3.1085 H         1 <0>         0.1994
@<TRIPOS>BOND
     1    1    2 1
     2    1   23 1
     3    1   24 1
     4    1   25 1
     5    2    3 1
     6    2   26 1
     7    2   27 1
     8    3    4 1
     9    3   28 1
    10    3   29 1
    11    4   10 ar
    12    4    5 ar
    13    5    6 ar
    14    5   30 1
    15    6    7 1
    16    6    8 ar
    17    8    9 ar
    18    9   10 ar
    19    9   11 1
    20   11   12 1
    21   12   13 1
    22   12   31 1
    23   12   32 1
    24   13   17 1
    25   13   14 2
    26   14   15 1
    27   14   33 1
    28   15   16 1
    29   16   17 2
    30   16   18 1
    31   18   22 2
    32   18   19 1
    33   19   20 2
    34   19   34 1
    35   20   21 1
    36   20   35 1
    37   21   22 1
    38   22   36 1
@<TRIPOS>MOLECULE
ZINC48655508
   29    30     0     0     0
SMALL
USER_CHARGES

@<TRIPOS>ATOM
      1 C1         -0.0184    1.5028    0.0103 C.3       1 <0>        -0.0807
      2 C2          0.0021   -0.0041    0.0020 C.ar      1 <0>        -0.1390
      3 C3          0.0058   -0.6887   -1.1977 C.ar      1 <0>        -0.0770
      4 C4          0.0250   -2.0710   -1.2067 C.ar      1 <0>        -0.1962
      5 C5          0.0401   -2.7736   -0.0143 C.ar      1 <0>        -0.0286
      6 C6          0.0360   -2.0946    1.1890 C.ar      1 <0>        -0.2345
      7 C7          0.0230   -0.7055    1.2007 C.ar      1 <0>         0.2900
      8 N1          0.0246   -0.0158    2.4152 N.2       1 <0>        -1.0742
      9 S1          0.0496   -0.8538    3.8433 S.o2      1 <0>         2.5923
     10 O1         -1.1855   -1.5518    3.9263 O.2       1 <0>        -1.0060
     11 O2          1.3049   -1.5170    3.9032 O.2       1 <0>        -1.0056
     12 C8          0.0450    0.3341    5.1446 C.ar      1 <0>        -0.6160
     13 C9          1.2408    0.8216    5.6407 C.ar      1 <0>         0.0593
     14 C10         1.2366    1.7543    6.6626 C.ar      1 <0>        -0.1395
     15 C11         0.0380    2.1988    7.1881 C.ar      1 <0>        -0.0599
     16 C12        -1.1572    1.7121    6.6928 C.ar      1 <0>        -0.1396
     17 C13        -1.1544    0.7839    5.6667 C.ar      1 <0>         0.0591
     18 Cl1        -2.6557    0.1785    5.0396 Cl        1 <0>        -0.0149
     19 Cl2         2.7464    0.2626    4.9816 Cl        1 <0>        -0.0151
     20 Br1         0.0658   -4.6643   -0.0321 Br        1 <0>        -0.0941
     21 H1          1.0042    1.8801    0.0026 H         1 <0>         0.0497
     22 H2         -0.5455    1.8639   -0.8728 H         1 <0>         0.0396
     23 H3         -0.5286    1.8543    0.9071 H         1 <0>         0.0739
     24 H4         -0.0067   -0.1435   -2.1298 H         1 <0>         0.1132
     25 H5          0.0279   -2.6038   -2.1461 H         1 <0>         0.1113
     26 H6          0.0475   -2.6430    2.1194 H         1 <0>         0.1078
     27 H7          2.1701    2.1350    7.0499 H         1 <0>         0.1414
     28 H8          0.0352    2.9264    7.9862 H         1 <0>         0.1422
     29 H9         -2.0934    2.0595    7.1040 H         1 <0>         0.1414
@<TRIPOS>BOND
     1    1    2 1
     2    1   21 1
     3    1   22 1
     4    1   23 1
     5    2    7 ar
     6    2    3 ar
     7    3    4 ar
     8    3   24 1
     9    4    5 ar
    10    4   25 1
    11    5    6 ar
    12    5   20 1
    13    6    7 ar
    14    6   26 1
    15    7    8 1
    16    8    9 1
    17    9   10 2
    18    9   11 2
    19    9   12 1
    20   12   17 ar
    21   12   13 ar
    22   13   14 ar
    23   13   19 1
    24   14   15 ar
    25   14   27 1
    26   15   16 ar
    27   15   28 1
    28   16   17 ar
    29   16   29 1
    30   17   18 1
@<TRIPOS>MOLECULE
ZINC06925888
   31    33     0     0     0
SMALL
USER_CHARGES

@<TRIPOS>ATOM
      1 C1          1.4990   -0.9632    2.4334 C.ar      1 <0>        -0.1008
      2 C2          2.6131   -0.1962    2.1533 C.ar      1 <0>        -0.1394
      3 C3          2.4609    1.0921    1.6569 C.ar      1 <0>         0.1664
      4 C4          1.1879    1.6053    1.4436 C.ar      1 <0>        -0.1133
      5 C5          0.0774    0.8331    1.7257 C.ar      1 <0>        -0.0723
      6 C6          0.2330   -0.4502    2.2203 C.ar      1 <0>        -0.1415
      7 Br1        -1.6564    1.5301    1.4359 Br        1 <0>        -0.0775
      8 N1          3.5867    1.8708    1.3730 N.2       1 <0>        -0.5676
      9 C7          4.7858    1.2670    1.0970 C.2       1 <0>         0.4307
     10 N2          5.0265   -0.0139    0.8655 N.2       1 <0>        -0.7122
     11 C8          6.2327   -0.4703    0.6109 C.2       1 <0>         0.5308
     12 O1          6.4420   -1.6538    0.3985 O.2       1 <0>        -0.5356
     13 C9          7.3247    0.5324    0.5953 C.2       1 <0>        -0.1787
     14 C10         8.6516    0.3685    0.3665 C.2       1 <0>        -0.0273
     15 C11         9.5756    1.4935    0.5647 C.ar      1 <0>        -0.0661
     16 C12         9.1244    2.6777    1.1594 C.ar      1 <0>        -0.0798
     17 C13         9.9964    3.7285    1.3425 C.ar      1 <0>        -0.1464
     18 C14        11.3184    3.6151    0.9388 C.ar      1 <0>         0.0941
     19 C15        11.7722    2.4450    0.3485 C.ar      1 <0>        -0.1559
     20 C16        10.9127    1.3840    0.1649 C.ar      1 <0>        -0.0740
     21 F1         12.1681    4.6496    1.1210 F         1 <0>        -0.1424
     22 S1          6.3992    2.0198    0.9554 S.3       1 <0>        -0.1067
     23 H1          1.6171   -1.9666    2.8151 H         1 <0>         0.1187
     24 H2          3.6016   -0.5977    2.3205 H         1 <0>         0.1416
     25 H3          1.0662    2.6068    1.0581 H         1 <0>         0.1255
     26 H4         -0.6364   -1.0521    2.4401 H         1 <0>         0.1186
     27 H5          9.0289   -0.5888    0.0387 H         1 <0>         0.1493
     28 H6          8.0950    2.7675    1.4735 H         1 <0>         0.1510
     29 H7          9.6496    4.6427    1.8012 H         1 <0>         0.1376
     30 H8         12.8029    2.3636    0.0362 H         1 <0>         0.1356
     31 H9         11.2685    0.4717   -0.2905 H         1 <0>         0.1375
@<TRIPOS>BOND
     1    1    6 ar
     2    1    2 ar
     3    1   23 1
     4    2    3 ar
     5    2   24 1
     6    3    4 ar
     7    3    8 1
     8    4    5 ar
     9    4   25 1
    10    5    6 ar
    11    5    7 1
    12    6   26 1
    13    8    9 1
    14    9   22 1
    15    9   10 2
    16   10   11 1
    17   11   12 2
    18   11   13 1
    19   13   14 2
    20   13   22 1
    21   14   15 1
    22   14   27 1
    23   15   20 ar
    24   15   16 ar
    25   16   17 ar
    26   16   28 1
    27   17   18 ar
    28   17   29 1
    29   18   19 ar
    30   18   21 1
    31   19   20 ar
    32   19   30 1
    33   20   31 1
@<TRIPOS>MOLECULE
ZINC66407068
   36    39     0     0     0
SMALL
USER_CHARGES

@<TRIPOS>ATOM
      1 C1         -0.1815    1.4156   -0.0190 C.3       1 <0>        -0.0905
      2 C2         -0.4604   -0.0650    0.0099 C.ar      1 <0>        -0.1102
      3 C3         -0.6635   -0.7477   -1.1527 C.ar      1 <0>        -0.0895
      4 C4         -0.9223   -2.1151   -1.1458 C.ar      1 <0>        -0.1868
      5 C5         -0.9798   -2.8119    0.0261 C.ar      1 <0>        -0.0336
      6 C6         -0.7758   -2.1426    1.2371 C.ar      1 <0>        -0.2292
      7 C7         -0.5071   -0.7505    1.2324 C.ar      1 <0>         0.1935
      8 N1         -0.3096   -0.1272    2.4008 N.ar      1 <0>        -0.5857
      9 C8         -0.3606   -0.8045    3.5373 C.ar      1 <0>         0.3896
     10 N2         -0.6060   -2.1170    3.5829 N.ar      1 <0>        -0.6007
     11 C9         -0.8239   -2.8151    2.4829 C.ar      1 <0>         0.4704
     12 O1         -1.0719   -4.1437    2.5436 O.3       1 <0>        -0.6595
     13 C10        -0.1378   -0.0836    4.7995 C.2       1 <0>         0.0238
     14 C11        -0.0352   -0.7664    5.9561 C.2       1 <0>        -0.0544
     15 C12        -0.0145   -2.2371    5.9425 C.2       1 <0>         0.1480
     16 C13        -0.9052   -2.9531    6.7077 C.2       1 <0>        -0.2109
     17 S1         -0.4239   -4.6260    6.2991 S.3       1 <0>        -0.0173
     18 C14         0.8954   -4.2104    5.1672 C.2       1 <0>         0.1951
     19 N3          0.8586   -2.8887    5.1889 N.2       1 <0>        -0.4396
     20 C15         1.7885   -5.1072    4.4047 C.2       1 <0>        -0.0312
     21 C16         1.7348   -6.4883    4.5827 C.2       1 <0>        -0.1303
     22 C17         2.5679   -7.2749    3.8668 C.2       1 <0>        -0.1781
     23 S2          3.4765   -6.0836    2.8973 S.3       1 <0>         0.0388
     24 C18         2.6855   -4.6019    3.5013 C.2       1 <0>        -0.1092
     25 Cl1        -0.0071    1.6475    4.7990 Cl        1 <0>        -0.0594
     26 H1          0.8932    1.5815   -0.0947 H         1 <0>         0.0567
     27 H2         -0.6796    1.8625   -0.8794 H         1 <0>         0.0494
     28 H3         -0.5562    1.8739    0.8962 H         1 <0>         0.0726
     29 H4         -0.6232   -0.2190   -2.0936 H         1 <0>         0.1117
     30 H5         -1.0803   -2.6319   -2.0808 H         1 <0>         0.1093
     31 H6         -1.1818   -3.8728    0.0185 H         1 <0>         0.1193
     32 H7          0.0319   -0.2341    6.8934 H         1 <0>         0.1412
     33 H8         -1.6810   -2.6020    7.3718 H         1 <0>         0.1869
     34 H9          1.0375   -6.9236    5.2832 H         1 <0>         0.1344
     35 H10         2.6607   -8.3508    3.8786 H         1 <0>         0.1875
     36 H11         2.8677   -3.5734    3.2265 H         1 <0>         0.1876
@<TRIPOS>BOND
     1    1    2 1
     2    1   26 1
     3    1   27 1
     4    1   28 1
     5    2    7 ar
     6    2    3 ar
     7    3    4 ar
     8    3   29 1
     9    4    5 ar
    10    4   30 1
    11    5    6 ar
    12    5   31 1
    13    6   11 ar
    14    6    7 ar
    15    7    8 ar
    16    8    9 ar
    17    9   10 ar
    18    9   13 1
    19   10   11 ar
    20   11   12 1
    21   13   14 2
    22   13   25 1
    23   14   15 1
    24   14   32 1
    25   15   19 1
    26   15   16 2
    27   16   17 1
    28   16   33 1
    29   17   18 1
    30   18   19 2
    31   18   20 1
    32   20   24 2
    33   20   21 1
    34   21   22 2
    35   21   34 1
    36   22   23 1
    37   22   35 1
    38   23   24 1
    39   24   36 1
@<TRIPOS>MOLECULE
ZINC06227870
   31    33     0     0     0
SMALL
USER_CHARGES
5-(2,4-dichlorophenyl)-4-[(2-fluorophenyl)methyleneamino]-1,2,4-triazole-3-thiol
@<TRIPOS>ATOM
      1 C1         -0.0559    4.1225    0.0248 C.ar      1 <0>        -0.1399
      2 C2         -1.2405    3.4065    0.0318 C.ar      1 <0>        -0.0697
      3 C3         -1.2213    2.0238    0.0188 C.ar      1 <0>        -0.1654
      4 C4         -0.0162    1.3468    0.0094 C.ar      1 <0>         0.1494
      5 C5          1.1843    2.0649    0.0018 C.ar      1 <0>        -0.0994
      6 C6          1.1543    3.4617    0.0097 C.ar      1 <0>        -0.0511
      7 C7          2.4743    1.3516   -0.0148 C.2       1 <0>         0.1631
      8 N1          2.4982    0.0541   -0.0225 N.2       1 <0>        -0.2132
      9 N2          3.7242   -0.6238   -0.0384 N.pl3     1 <0>        -0.3636
     10 C8          4.4641   -1.0334    1.0496 C.2       1 <0>         0.1343
     11 N3          5.5383   -1.6281    0.5826 N.2       1 <0>        -0.2332
     12 N4          5.5227   -1.6197   -0.7022 N.2       1 <0>        -0.3278
     13 C9          4.4351   -1.0235   -1.1380 C.2       1 <0>         0.3871
     14 S1          3.9790   -0.7814   -2.8226 S.3       1 <0>        -0.7807
     15 C10         4.1152   -0.8401    2.4724 C.ar      1 <0>         0.0368
     16 C11         2.9354   -0.1802    2.8215 C.ar      1 <0>        -0.1023
     17 C12         2.6130   -0.0066    4.1511 C.ar      1 <0>        -0.0985
     18 C13         3.4616   -0.4763    5.1400 C.ar      1 <0>        -0.0320
     19 C14         4.6354   -1.1273    4.8014 C.ar      1 <0>        -0.0994
     20 C15         4.9673   -1.3117    3.4738 C.ar      1 <0>        -0.0088
     21 Cl1         6.4402   -2.1272    3.0504 Cl        1 <0>        -0.0181
     22 Cl2         3.0510   -0.2481    6.8112 Cl        1 <0>        -0.0663
     23 F1          0.0021   -0.0041    0.0020 F         1 <0>        -0.1094
     24 H1         -0.0795    5.2022    0.0309 H         1 <0>         0.1351
     25 H2         -2.1848    3.9305    0.0430 H         1 <0>         0.1350
     26 H3         -2.1496    1.4719    0.0202 H         1 <0>         0.1400
     27 H4          2.0771    4.0227    0.0035 H         1 <0>         0.1399
     28 H5          3.4166    1.9191   -0.0207 H         1 <0>         0.1304
     29 H6          2.2747    0.1904    2.0517 H         1 <0>         0.1414
     30 H7          1.6988    0.5005    4.4219 H         1 <0>         0.1397
     31 H8          5.2930   -1.4912    5.5770 H         1 <0>         0.1463
@<TRIPOS>BOND
     1    1    6 ar
     2    1    2 ar
     3    1   24 1
     4    2    3 ar
     5    2   25 1
     6    3    4 ar
     7    3   26 1
     8    4    5 ar
     9    4   23 1
    10    5    6 ar
    11    5    7 1
    12    6   27 1
    13    7    8 2
    14    7   28 1
    15    8    9 1
    16    9   13 1
    17    9   10 1
    18   10   11 2
    19   10   15 1
    20   11   12 1
    21   12   13 2
    22   13   14 1
    23   15   20 ar
    24   15   16 ar
    25   16   17 ar
    26   16   29 1
    27   17   18 ar
    28   17   30 1
    29   18   19 ar
    30   18   22 1
    31   19   20 ar
    32   19   31 1
    33   20   21 1
@<TRIPOS>MOLECULE
ZINC02351402
   31    33     0     0     0
SMALL
USER_CHARGES
3-(2,4-dichlorophenyl)-4-[(2-fluorophenyl)methyleneamino]-1H-1,2,4-triazole-5-thione
@<TRIPOS>ATOM
      1 C1          1.1481    2.1254   -0.3103 C.ar      1 <0>        -0.1271
      2 C2          1.1074    3.4062   -0.8338 C.ar      1 <0>        -0.0685
      3 C3         -0.1047    3.9989   -1.1370 C.ar      1 <0>        -0.1661
      4 C4         -1.2855    3.3146   -0.9187 C.ar      1 <0>         0.1339
      5 C5         -1.2511    2.0221   -0.3843 C.ar      1 <0>        -0.1569
      6 C6         -0.0213    1.4297   -0.0867 C.ar      1 <0>        -0.0691
      7 C7         -2.5056    1.2870   -0.1418 C.2       1 <0>         0.1697
      8 N1         -2.4974   -0.0099   -0.0851 N.2       1 <0>        -0.2252
      9 N2         -1.2803   -0.7038   -0.0949 N.pl3     1 <0>        -0.3777
     10 C8         -0.4885   -0.9343   -1.2038 C.2       1 <0>         0.1869
     11 N3          0.5641   -1.6068   -0.8283 N.2       1 <0>        -0.2651
     12 N4          0.4640   -1.8348    0.5510 N.2       1 <0>        -0.3668
     13 C9         -0.6834   -1.2664    0.9747 C.2       1 <0>         0.4010
     14 S1         -1.2753   -1.2612    2.5811 S.3       1 <0>        -0.7416
     15 C10        -0.7829   -0.4894   -2.5835 C.ar      1 <0>         0.0220
     16 C11        -1.9500    0.2256   -2.8549 C.ar      1 <0>        -0.1022
     17 C12        -2.2166    0.6429   -4.1422 C.ar      1 <0>        -0.1001
     18 C13        -1.3346    0.3436   -5.1673 C.ar      1 <0>        -0.0258
     19 C14        -0.1776   -0.3699   -4.9062 C.ar      1 <0>        -0.1025
     20 C15         0.1031   -0.7882   -3.6203 C.ar      1 <0>        -0.0042
     21 Cl1         1.5545   -1.6829   -3.2938 Cl        1 <0>        -0.0167
     22 Cl2        -1.6814    0.8658   -6.7862 Cl        1 <0>        -0.0641
     23 F1         -2.4694    3.8941   -1.2151 F         1 <0>        -0.1330
     24 H1          2.0988    1.6697   -0.0759 H         1 <0>         0.1322
     25 H2          2.0271    3.9455   -1.0061 H         1 <0>         0.1344
     26 H3         -0.1287    4.9986   -1.5449 H         1 <0>         0.1382
     27 H4          0.0132    0.4307    0.3222 H         1 <0>         0.1608
     28 H5         -3.4487    1.8374   -0.0089 H         1 <0>         0.1998
     29 H6         -2.6412    0.4557   -2.0576 H         1 <0>         0.1456
     30 H7         -3.1176    1.2002   -4.3522 H         1 <0>         0.1415
     31 H8          0.5067   -0.6001   -5.7094 H         1 <0>         0.1467
@<TRIPOS>BOND
     1    1    6 ar
     2    1    2 ar
     3    1   24 1
     4    2    3 ar
     5    2   25 1
     6    3    4 ar
     7    3   26 1
     8    4    5 ar
     9    4   23 1
    10    5    6 ar
    11    5    7 1
    12    6   27 1
    13    7    8 2
    14    7   28 1
    15    8    9 1
    16    9   13 1
    17    9   10 1
    18   10   11 2
    19   10   15 1
    20   11   12 1
    21   12   13 2
    22   13   14 1
    23   15   20 ar
    24   15   16 ar
    25   16   17 ar
    26   16   29 1
    27   17   18 ar
    28   17   30 1
    29   18   19 ar
    30   18   22 1
    31   19   20 ar
    32   19   31 1
    33   20   21 1
@<TRIPOS>MOLECULE
ZINC37385933
   29    30     0     0     0
SMALL
USER_CHARGES

@<TRIPOS>ATOM
      1 C1         -2.0782   -1.3224   -1.7862 C.3       1 <0>        -0.1128
      2 C2         -0.8903   -1.3635   -0.8598 C.ar      1 <0>        -0.0619
      3 C3          0.2763   -0.7048   -1.2030 C.ar      1 <0>        -0.1716
      4 C4          1.3685   -0.7393   -0.3561 C.ar      1 <0>        -0.0910
      5 C5          1.2980   -1.4329    0.8377 C.ar      1 <0>        -0.0719
      6 C6          0.1276   -2.0959    1.1858 C.ar      1 <0>         0.2732
      7 C7         -0.9700   -2.0546    0.3343 C.ar      1 <0>        -0.1117
      8 Cl1        -2.4373   -2.8751    0.7674 Cl        1 <0>        -0.0425
      9 N1          0.0526   -2.7985    2.3924 N.2       1 <0>        -1.1135
     10 S1         -0.0494   -4.4513    2.3832 S.o2      1 <0>         2.6062
     11 O1         -1.2953   -4.7780    1.7828 O.2       1 <0>        -1.0103
     12 O2          1.1888   -4.9318    1.8781 O.2       1 <0>        -1.0255
     13 C8         -0.1464   -4.9767    4.0622 C.ar      1 <0>        -0.5977
     14 C9          1.0100   -5.2512    4.7682 C.ar      1 <0>        -0.0185
     15 C10         0.9345   -5.6630    6.0855 C.ar      1 <0>        -0.1186
     16 C11        -0.2985   -5.8004    6.6973 C.ar      1 <0>        -0.0556
     17 C12        -1.4553   -5.5256    5.9905 C.ar      1 <0>        -0.1191
     18 C13        -1.3786   -5.1088    4.6749 C.ar      1 <0>        -0.0169
     19 Br1        -0.4025   -6.3642    8.4993 Br        1 <0>        -0.0588
     20 Cl2         2.6702   -1.4760    1.9002 Cl        1 <0>        -0.0782
     21 H1         -2.7014   -0.4626   -1.5402 H         1 <0>         0.0667
     22 H2         -1.7327   -1.2378   -2.8166 H         1 <0>         0.0615
     23 H3         -2.6598   -2.2372   -1.6721 H         1 <0>         0.0690
     24 H4          0.3344   -0.1624   -2.1351 H         1 <0>         0.1200
     25 H5          2.2780   -0.2240   -0.6275 H         1 <0>         0.1198
     26 H6          1.9726   -5.1443    4.2903 H         1 <0>         0.1447
     27 H7          1.8380   -5.8778    6.6368 H         1 <0>         0.1349
     28 H8         -2.4182   -5.6326    6.4678 H         1 <0>         0.1347
     29 H9         -2.2816   -4.8903    4.1242 H         1 <0>         0.1456
@<TRIPOS>BOND
     1    1    2 1
     2    1   21 1
     3    1   22 1
     4    1   23 1
     5    2    7 ar
     6    2    3 ar
     7    3    4 ar
     8    3   24 1
     9    4    5 ar
    10    4   25 1
    11    5    6 ar
    12    5   20 1
    13    6    7 ar
    14    6    9 1
    15    7    8 1
    16    9   10 1
    17   10   11 2
    18   10   12 2
    19   10   13 1
    20   13   18 ar
    21   13   14 ar
    22   14   15 ar
    23   14   26 1
    24   15   16 ar
    25   15   27 1
    26   16   17 ar
    27   16   19 1
    28   17   18 ar
    29   17   28 1
    30   18   29 1
@<TRIPOS>MOLECULE
ZINC40285757
   27    29     0     0     0
SMALL
USER_CHARGES

@<TRIPOS>ATOM
      1 C1          1.1978   -0.5741   -0.0935 C.ar      1 <0>        -0.0869
      2 C2          2.3585    0.1678   -0.1258 C.ar      1 <0>        -0.1239
      3 C3          2.2905    1.5607   -0.0877 C.ar      1 <0>         0.1111
      4 C4          1.0403    2.1938   -0.0168 C.ar      1 <0>        -0.0373
      5 C5         -0.1167    1.4327    0.0153 C.ar      1 <0>        -0.0530
      6 C6         -0.0352    0.0553   -0.0234 C.ar      1 <0>        -0.1498
      7 C7         -1.2957   -0.7700    0.0107 C.3       1 <0>         0.0600
      8 H1         -1.0478   -1.8189   -0.1522 H         1 <0>         0.1226
      9 C8         -1.9621   -0.6140    1.3534 C.ar      1 <0>        -0.0507
     10 C9         -2.5036    0.6042    1.7185 C.ar      1 <0>        -0.0859
     11 C10        -3.1151    0.7481    2.9512 C.ar      1 <0>        -0.0194
     12 C11        -3.1849   -0.3275    3.8182 C.ar      1 <0>        -0.1020
     13 C12        -2.6432   -1.5465    3.4521 C.ar      1 <0>        -0.0223
     14 C13        -2.0365   -1.6907    2.2170 C.ar      1 <0>        -0.0912
     15 Cl1        -2.7297   -2.8968    4.5397 Cl        1 <0>        -0.0588
     16 Cl2        -3.7941    2.2785    3.4101 Cl        1 <0>        -0.0538
     17 Br1        -2.5180   -0.1584   -1.4025 Br        1 <0>        -0.1441
     18 O1          1.2877    3.5235    0.0059 O.3       1 <0>        -0.2739
     19 C14         2.6183    3.7037   -0.0481 C.2       1 <0>         0.5167
     20 O2          3.2374    4.9054   -0.0443 O.3       1 <0>        -0.6421
     21 N1          3.2267    2.5492   -0.1039 N.2       1 <0>        -0.6103
     22 H2          1.2489   -1.6524   -0.1275 H         1 <0>         0.1205
     23 H3          3.3169   -0.3269   -0.1801 H         1 <0>         0.1230
     24 H4         -1.0808    1.9163    0.0699 H         1 <0>         0.1176
     25 H5         -2.4490    1.4439    1.0415 H         1 <0>         0.1464
     26 H6         -3.6618   -0.2155    4.7807 H         1 <0>         0.1442
     27 H7         -1.6174   -2.6436    1.9292 H         1 <0>         0.1431
@<TRIPOS>BOND
     1    1    6 ar
     2    1    2 ar
     3    1   22 1
     4    2    3 ar
     5    2   23 1
     6    3   21 1
     7    3    4 ar
     8    4    5 ar
     9    4   18 1
    10    5    6 ar
    11    5   24 1
    12    6    7 1
    13    7    8 1
    14    7    9 1
    15    7   17 1
    16    9   14 ar
    17    9   10 ar
    18   10   11 ar
    19   10   25 1
    20   11   12 ar
    21   11   16 1
    22   12   13 ar
    23   12   26 1
    24   13   14 ar
    25   13   15 1
    26   14   27 1
    27   18   19 1
    28   19   20 1
    29   19   21 2
@<TRIPOS>MOLECULE
ZINC05551149
   32    34     0     0     0
SMALL
USER_CHARGES

@<TRIPOS>ATOM
      1 C1          0.0099    1.3045   -0.2921 C.ar      1 <0>        -0.1139
      2 C2          1.1691    2.0067   -0.0383 C.ar      1 <0>        -0.0661
      3 C3          2.4113    1.4137   -0.2891 C.ar      1 <0>        -0.0859
      4 C4          2.4667    0.1106   -0.7961 C.ar      1 <0>        -0.0696
      5 C5          1.2980   -0.5786   -1.0447 C.ar      1 <0>        -0.0907
      6 C6          0.0723    0.0162   -0.7936 C.ar      1 <0>        -0.0679
      7 Br1         1.3690   -2.3396   -1.7299 Br        1 <0>        -0.0350
      8 C7          3.6518    2.1558   -0.0217 C.2       1 <0>         0.0643
      9 C8          4.8324    1.4941    0.0659 C.2       1 <0>        -0.2140
     10 C9          6.2028    2.0333    0.1816 C.2       1 <0>         0.5630
     11 O1          6.4150    3.2312    0.2119 O.2       1 <0>        -0.4793
     12 N1          7.1883    1.1544    0.2512 N.am      1 <0>        -0.6473
     13 C10         6.9270   -0.1984    0.2153 C.2       1 <0>         0.3844
     14 N2          7.7792   -1.1964    0.2728 N.2       1 <0>        -0.4575
     15 C11         7.3261   -2.4874    0.2221 C.ar      1 <0>         0.0845
     16 C12         6.2190   -2.8721    0.9815 C.ar      1 <0>        -0.1182
     17 C13         5.7668   -4.1740    0.9260 C.ar      1 <0>        -0.1305
     18 C14         6.4088   -5.0995    0.1191 C.ar      1 <0>         0.1006
     19 C15         7.5079   -4.7239   -0.6363 C.ar      1 <0>        -0.1375
     20 C16         7.9655   -3.4232   -0.5937 C.ar      1 <0>        -0.0665
     21 F1          5.9617   -6.3734    0.0691 F         1 <0>        -0.1346
     22 S1          5.1479   -0.2648    0.0803 S.3       1 <0>        -0.0156
     23 H1         -0.9495    1.7595   -0.0948 H         1 <0>         0.1422
     24 H2          1.1183    3.0122    0.3527 H         1 <0>         0.1419
     25 H3          3.4216   -0.3540   -0.9926 H         1 <0>         0.1460
     26 H4         -0.8393   -0.5284   -0.9902 H         1 <0>         0.1403
     27 H5          3.6230    3.2279    0.1050 H         1 <0>         0.1665
     28 H6          8.1041    1.4647    0.3280 H         1 <0>         0.4257
     29 H7          5.7182   -2.1517    1.6114 H         1 <0>         0.1398
     30 H8          4.9107   -4.4727    1.5129 H         1 <0>         0.1429
     31 H9          8.0046   -5.4497   -1.2631 H         1 <0>         0.1451
     32 H10         8.8196   -3.1304   -1.1864 H         1 <0>         0.1430
@<TRIPOS>BOND
     1    1    6 ar
     2    1    2 ar
     3    1   23 1
     4    2    3 ar
     5    2   24 1
     6    3    4 ar
     7    3    8 1
     8    4    5 ar
     9    4   25 1
    10    5    6 ar
    11    5    7 1
    12    6   26 1
    13    8    9 2
    14    8   27 1
    15    9   22 1
    16    9   10 1
    17   10   11 2
    18   10   12 am
    19   12   13 1
    20   12   28 1
    21   13   14 2
    22   13   22 1
    23   14   15 1
    24   15   20 ar
    25   15   16 ar
    26   16   17 ar
    27   16   29 1
    28   17   18 ar
    29   17   30 1
    30   18   19 ar
    31   18   21 1
    32   19   20 ar
    33   19   31 1
    34   20   32 1
@<TRIPOS>MOLECULE
ZINC17746977
   51    53     0     0     0
SMALL
USER_CHARGES

@<TRIPOS>ATOM
      1 C1          0.2778    1.4746    0.2153 C.3       1 <0>        -0.1407
      2 C2          0.2395   -0.0541    0.1664 C.3       1 <0>        -0.0935
      3 C3          0.7387   -0.5333   -1.1982 C.3       1 <0>        -0.1340
      4 C4          0.7009   -2.0391   -1.2464 C.2       1 <0>         0.3151
      5 N1         -0.3537   -2.6507   -1.7110 N.2       1 <0>        -0.5319
      6 C5         -1.3632   -1.9299   -2.2909 C.ar      1 <0>         0.1368
      7 C6         -1.0910   -1.0788   -3.3629 C.ar      1 <0>        -0.1495
      8 C7         -2.1126   -0.3554   -3.9434 C.ar      1 <0>        -0.1332
      9 C8         -3.4067   -0.4701   -3.4664 C.ar      1 <0>        -0.1378
     10 C9         -3.6883   -1.3099   -2.4046 C.ar      1 <0>        -0.1923
     11 C10        -2.6754   -2.0473   -1.8152 C.ar      1 <0>         0.0919
     12 O1         -2.9522   -2.8772   -0.7753 O.3       1 <0>        -0.2967
     13 C11        -4.3130   -2.9455   -0.3443 C.3       1 <0>         0.0294
     14 C12         1.8515   -2.8182   -0.7704 C.2       1 <0>        -0.4934
     15 C13         2.9056   -2.1637   -0.1314 C.2       1 <0>         0.3943
     16 C14         4.0978   -2.9366    0.3691 C.3       1 <0>        -0.1434
     17 C15         4.3077   -4.1715   -0.5114 C.3       1 <0>        -0.0354
     18 H1          4.5158   -3.8586   -1.5346 H         1 <0>         0.0795
     19 C16         3.0370   -5.0253   -0.4854 C.3       1 <0>        -0.1478
     20 C17         1.8691   -4.2008   -0.9598 C.2       1 <0>         0.3924
     21 O2          0.9306   -4.7467   -1.5189 O.2       1 <0>        -0.5177
     22 C18         5.4682   -4.9753    0.0159 C.ar      1 <0>        -0.0624
     23 C19         5.4267   -5.4898    1.2982 C.ar      1 <0>        -0.1142
     24 C20         6.4912   -6.2271    1.7820 C.ar      1 <0>        -0.1204
     25 C21         7.5971   -6.4503    0.9831 C.ar      1 <0>        -0.1337
     26 C22         7.6383   -5.9366   -0.2995 C.ar      1 <0>        -0.1212
     27 C23         6.5719   -5.2029   -0.7848 C.ar      1 <0>        -0.1189
     28 O3          2.8613   -0.9532    0.0231 O.3       1 <0>        -0.5605
     29 H2          1.3010    1.8175    0.0618 H         1 <0>         0.0546
     30 H3         -0.3625    1.8794   -0.5684 H         1 <0>         0.0427
     31 H4         -0.0777    1.8160    1.1875 H         1 <0>         0.0422
     32 H5          0.8799   -0.4589    0.9501 H         1 <0>         0.0706
     33 H6         -0.7837   -0.3970    0.3199 H         1 <0>         0.0389
     34 H7          0.0983   -0.1286   -1.9820 H         1 <0>         0.0589
     35 H8          1.7619   -0.1904   -1.3518 H         1 <0>         0.0991
     36 H9         -0.0822   -0.9861   -3.7373 H         1 <0>         0.1192
     37 H10        -1.9015    0.3031   -4.7729 H         1 <0>         0.1117
     38 H11        -4.2009    0.0996   -3.9258 H         1 <0>         0.1111
     39 H12        -4.7004   -1.3940   -2.0372 H         1 <0>         0.1172
     40 H13        -4.9382   -3.2897   -1.1681 H         1 <0>         0.0466
     41 H14        -4.3953   -3.6422    0.4900 H         1 <0>         0.0913
     42 H15        -4.6433   -1.9568   -0.0259 H         1 <0>         0.0456
     43 H16         4.9849   -2.3047    0.3268 H         1 <0>         0.0724
     44 H17         3.9224   -3.2495    1.3984 H         1 <0>         0.0777
     45 H18         3.1651   -5.8880   -1.1393 H         1 <0>         0.0705
     46 H19         2.8480   -5.3652    0.5328 H         1 <0>         0.0757
     47 H20         4.5627   -5.3154    1.9223 H         1 <0>         0.1222
     48 H21         6.4591   -6.6285    2.7841 H         1 <0>         0.1177
     49 H22         8.4291   -7.0258    1.3613 H         1 <0>         0.1156
     50 H23         8.5024   -6.1107   -0.9235 H         1 <0>         0.1172
     51 H24         6.6024   -4.8046   -1.7882 H         1 <0>         0.1207
@<TRIPOS>BOND
     1    1    2 1
     2    1   29 1
     3    1   30 1
     4    1   31 1
     5    2    3 1
     6    2   32 1
     7    2   33 1
     8    3    4 1
     9    3   34 1
    10    3   35 1
    11    4    5 2
    12    4   14 1
    13    5    6 1
    14    6   11 ar
    15    6    7 ar
    16    7    8 ar
    17    7   36 1
    18    8    9 ar
    19    8   37 1
    20    9   10 ar
    21    9   38 1
    22   10   11 ar
    23   10   39 1
    24   11   12 1
    25   12   13 1
    26   13   40 1
    27   13   41 1
    28   13   42 1
    29   14   20 1
    30   14   15 2
    31   15   16 1
    32   15   28 1
    33   16   17 1
    34   16   43 1
    35   16   44 1
    36   17   18 1
    37   17   19 1
    38   17   22 1
    39   19   20 1
    40   19   45 1
    41   19   46 1
    42   20   21 2
    43   22   27 ar
    44   22   23 ar
    45   23   24 ar
    46   23   47 1
    47   24   25 ar
    48   24   48 1
    49   25   26 ar
    50   25   49 1
    51   26   27 ar
    52   26   50 1
    53   27   51 1
@<TRIPOS>MOLECULE
ZINC02452489
   58    62     0     0     0
SMALL
USER_CHARGES
benzyl-N-[2-(1-cyclohexenyl)ethyl]BLAHamine
@<TRIPOS>ATOM
      1 C1         -1.0936    2.2063   -3.5120 C.ar      1 <0>        -0.1181
      2 C2         -0.1311    2.9271   -2.8302 C.ar      1 <0>        -0.1235
      3 C3          0.3114    2.4930   -1.5946 C.ar      1 <0>        -0.1022
      4 C4         -0.2082    1.3377   -1.0412 C.ar      1 <0>        -0.0841
      5 C5         -1.1666    0.6138   -1.7256 C.ar      1 <0>        -0.1021
      6 C6         -1.6129    1.0508   -2.9588 C.ar      1 <0>        -0.1225
      7 C7          0.2746    0.8642    0.3056 C.3       1 <0>        -0.0094
      8 C8         -0.5833    1.4678    1.3875 C.ar      1 <0>         0.3937
      9 N1         -0.2348    2.6270    1.9168 N.ar      1 <0>        -0.5787
     10 C9         -0.9485    3.2117    2.8652 C.ar      1 <0>         0.4895
     11 C10        -2.1248    2.5688    3.3419 C.ar      1 <0>        -0.2496
     12 C11        -3.0590    3.0171    4.3759 C.2       1 <0>        -0.0798
     13 C12        -4.1079    2.2130    4.6427 C.2       1 <0>        -0.1501
     14 S1         -3.9196    0.8292    3.5505 S.3       1 <0>         0.1083
     15 C13        -2.4283    1.3343    2.7340 C.ar      1 <0>         0.1535
     16 N2         -1.6627    0.8246    1.7887 N.ar      1 <0>        -0.5161
     17 C14        -5.1957    2.4437    5.6471 C.3       1 <0>        -0.0401
     18 C15        -4.7474    3.5611    6.5998 C.3       1 <0>        -0.1147
     19 C16        -4.2040    4.7269    5.7685 C.3       1 <0>        -0.1195
     20 C17        -2.8726    4.3317    5.1288 C.3       1 <0>        -0.0713
     21 N3         -0.5531    4.4289    3.3903 N.pl3     1 <0>        -0.7081
     22 C18         0.5868    5.1420    2.8086 C.3       1 <0>         0.1310
     23 C19         0.8116    6.4505    3.5690 C.3       1 <0>        -0.1011
     24 C20         1.9842    7.1840    2.9707 C.2       1 <0>        -0.1200
     25 C21         1.7421    8.0904    2.0787 C.2       1 <0>        -0.1452
     26 C22         2.8039    8.8954    1.3884 C.3       1 <0>        -0.0914
     27 C23         4.1195    8.8088    2.1651 C.3       1 <0>        -0.1220
     28 C24         4.4119    7.3324    2.4610 C.3       1 <0>        -0.1205
     29 C25         3.3594    6.8226    3.4504 C.3       1 <0>        -0.0831
     30 H1         -1.4396    2.5457   -4.4772 H         1 <0>         0.1210
     31 H2          0.2748    3.8297   -3.2626 H         1 <0>         0.1216
     32 H3          1.0634    3.0561   -1.0619 H         1 <0>         0.1243
     33 H4         -1.5693   -0.2911   -1.2952 H         1 <0>         0.1260
     34 H5         -2.3646    0.4875   -3.4917 H         1 <0>         0.1226
     35 H6          0.2085   -0.2228    0.3536 H         1 <0>         0.1039
     36 H7          1.3103    1.1719    0.4491 H         1 <0>         0.1032
     37 H8         -6.1104    2.7429    5.1352 H         1 <0>         0.0871
     38 H9         -5.3739    1.5286    6.2119 H         1 <0>         0.0858
     39 H10        -5.5975    3.8995    7.1922 H         1 <0>         0.0778
     40 H11        -3.9668    3.1859    7.2616 H         1 <0>         0.0700
     41 H12        -4.9206    4.9794    4.9870 H         1 <0>         0.0695
     42 H13        -4.0531    5.5924    6.4136 H         1 <0>         0.0736
     43 H14        -2.5565    5.1092    4.4334 H         1 <0>         0.0744
     44 H15        -2.1174    4.2065    5.9047 H         1 <0>         0.0814
     45 H16        -1.0307    4.8102    4.1435 H         1 <0>         0.4118
     46 H17         1.4796    4.5211    2.8820 H         1 <0>         0.0731
     47 H18         0.3818    5.3613    1.7607 H         1 <0>         0.0696
     48 H19        -0.0812    7.0714    3.4956 H         1 <0>         0.0730
     49 H20         1.0165    6.2312    4.6169 H         1 <0>         0.0750
     50 H21         0.7119    8.2792    1.8153 H         1 <0>         0.1024
     51 H22         2.9531    8.5078    0.3806 H         1 <0>         0.0744
     52 H23         2.4879    9.9371    1.3318 H         1 <0>         0.0713
     53 H24         4.9271    9.2293    1.5658 H         1 <0>         0.0653
     54 H25         4.0291    9.3593    3.1015 H         1 <0>         0.0638
     55 H26         4.3608    6.7564    1.5371 H         1 <0>         0.0653
     56 H27         5.4057    7.2362    2.8982 H         1 <0>         0.0659
     57 H28         3.5306    7.2720    4.4286 H         1 <0>         0.0732
     58 H29         3.4397    5.7388    3.5339 H         1 <0>         0.0711
@<TRIPOS>BOND
     1    1    6 ar
     2    1    2 ar
     3    1   30 1
     4    2    3 ar
     5    2   31 1
     6    3    4 ar
     7    3   32 1
     8    4    5 ar
     9    4    7 1
    10    5    6 ar
    11    5   33 1
    12    6   34 1
    13    7    8 1
    14    7   35 1
    15    7   36 1
    16    8   16 ar
    17    8    9 ar
    18    9   10 ar
    19   10   11 ar
    20   10   21 1
    21   11   15 ar
    22   11   12 1
    23   12   20 1
    24   12   13 2
    25   13   14 1
    26   13   17 1
    27   14   15 1
    28   15   16 ar
    29   17   18 1
    30   17   37 1
    31   17   38 1
    32   18   19 1
    33   18   39 1
    34   18   40 1
    35   19   20 1
    36   19   41 1
    37   19   42 1
    38   20   43 1
    39   20   44 1
    40   21   22 1
    41   21   45 1
    42   22   23 1
    43   22   46 1
    44   22   47 1
    45   23   24 1
    46   23   48 1
    47   23   49 1
    48   24   29 1
    49   24   25 2
    50   25   26 1
    51   25   50 1
    52   26   27 1
    53   26   51 1
    54   26   52 1
    55   27   28 1
    56   27   53 1
    57   27   54 1
    58   28   29 1
    59   28   55 1
    60   28   56 1
    61   29   57 1
    62   29   58 1
@<TRIPOS>MOLECULE
ZINC19738564
   59    62     0     0     0
SMALL
USER_CHARGES
4-(2-cyclohexylethoxy)-N-[2-(1-naphthyl)ethyl]aniline
@<TRIPOS>ATOM
      1 C1          1.1532   -4.1318   -3.6036 C.ar      1 <0>        -0.1160
      2 C2          1.1318   -2.7382   -3.6157 C.ar      1 <0>        -0.1142
      3 C3          1.2334   -2.0258   -2.4606 C.ar      1 <0>        -0.1092
      4 C4          1.3580   -2.7024   -1.2350 C.ar      1 <0>        -0.0448
      5 C5          1.3842   -4.1196   -1.2232 C.ar      1 <0>        -0.0515
      6 C6          1.2763   -4.8207   -2.4365 C.ar      1 <0>        -0.1059
      7 C7          1.5130   -4.7959    0.0015 C.ar      1 <0>        -0.1063
      8 C8          1.6155   -4.0833    1.1569 C.ar      1 <0>        -0.1143
      9 C9          1.5948   -2.6902    1.1448 C.ar      1 <0>        -0.1099
     10 C10         1.4717   -2.0012   -0.0227 C.ar      1 <0>        -0.0708
     11 C11         1.4513   -0.4944   -0.0145 C.3       1 <0>        -0.0919
     12 C12         0.0021   -0.0041    0.0020 C.3       1 <0>         0.1354
     13 N1         -0.0178    1.4608    0.0101 N.pl3     1 <0>        -0.7618
     14 C13        -1.2391    2.1439    0.0196 C.ar      1 <0>         0.1879
     15 C14        -2.4323    1.4338    0.0156 C.ar      1 <0>        -0.1620
     16 C15        -3.6372    2.1088    0.0318 C.ar      1 <0>        -0.1581
     17 C16        -3.6555    3.4956    0.0389 C.ar      1 <0>         0.0714
     18 C17        -2.4641    4.2058    0.0366 C.ar      1 <0>        -0.1028
     19 C18        -1.2584    3.5324    0.0272 C.ar      1 <0>        -0.1569
     20 O1         -4.8424    4.1595    0.0487 O.3       1 <0>        -0.3197
     21 C19        -6.0302    3.3651    0.0505 C.3       1 <0>         0.0593
     22 C20        -7.2561    4.2805    0.0618 C.3       1 <0>        -0.1150
     23 C21        -8.5278    3.4298    0.0637 C.3       1 <0>        -0.0832
     24 C22        -8.6195    2.6467   -1.2474 C.3       1 <0>        -0.1198
     25 C23        -9.8913    1.7960   -1.2455 C.3       1 <0>        -0.1212
     26 C24       -11.1135    2.7062   -1.1085 C.3       1 <0>        -0.1218
     27 C25       -11.0217    3.4893    0.2027 C.3       1 <0>        -0.1210
     28 C26        -9.7500    4.3400    0.2007 C.3       1 <0>        -0.1142
     29 H1          1.0705   -4.6731   -4.5346 H         1 <0>         0.1237
     30 H2          1.0327   -2.2159   -4.5558 H         1 <0>         0.1232
     31 H3          1.2146   -0.9463   -2.4852 H         1 <0>         0.1274
     32 H4          1.2907   -5.9006   -2.4425 H         1 <0>         0.1274
     33 H5          1.5302   -5.8755    0.0263 H         1 <0>         0.1274
     34 H6          1.7141   -4.6057    2.0970 H         1 <0>         0.1245
     35 H7          1.6778   -2.1489    2.0757 H         1 <0>         0.1234
     36 H8          1.9734   -0.1255    0.8807 H         1 <0>         0.0824
     37 H9          1.9562   -0.1159   -0.9155 H         1 <0>         0.0822
     38 H10        -0.5200   -0.3729   -0.8932 H         1 <0>         0.0582
     39 H11        -0.5028   -0.3826    0.9030 H         1 <0>         0.0575
     40 H12         0.9273    2.0237    0.0087 H         1 <0>         0.4173
     41 H13        -2.4182    0.3539    0.0048 H         1 <0>         0.1200
     42 H14        -4.5653    1.5566    0.0339 H         1 <0>         0.1238
     43 H15        -2.4793    5.2857    0.0426 H         1 <0>         0.1287
     44 H16        -0.3307    4.0855    0.0261 H         1 <0>         0.1263
     45 H17        -6.0513    2.7351   -0.8510 H         1 <0>         0.0614
     46 H18        -6.0421    2.7253    0.9452 H         1 <0>         0.0579
     47 H19        -7.2350    4.9105    0.9633 H         1 <0>         0.0742
     48 H20        -7.2443    4.9203   -0.8329 H         1 <0>         0.0742
     49 H21        -8.4975    2.7268    0.9092 H         1 <0>         0.0726
     50 H22        -8.6498    3.3496   -2.0930 H         1 <0>         0.0647
     51 H23        -7.7408    1.9923   -1.3459 H         1 <0>         0.0621
     52 H24        -9.9572    1.2330   -2.1882 H         1 <0>         0.0618
     53 H25        -9.8610    1.0930   -0.4000 H         1 <0>         0.0614
     54 H26       -11.1438    3.4091   -1.9541 H         1 <0>         0.0618
     55 H27       -12.0278    2.0946   -1.1071 H         1 <0>         0.0610
     56 H28       -11.9004    4.1436    0.3013 H         1 <0>         0.0625
     57 H29       -10.9913    2.7864    1.0483 H         1 <0>         0.0616
     58 H30        -9.6840    4.9031    1.1434 H         1 <0>         0.0636
     59 H31        -9.7804    5.0429   -0.6449 H         1 <0>         0.0641
@<TRIPOS>BOND
     1    1    6 ar
     2    1    2 ar
     3    1   29 1
     4    2    3 ar
     5    2   30 1
     6    3    4 ar
     7    3   31 1
     8    4   10 ar
     9    4    5 ar
    10    5    6 ar
    11    5    7 ar
    12    6   32 1
    13    7    8 ar
    14    7   33 1
    15    8    9 ar
    16    8   34 1
    17    9   10 ar
    18    9   35 1
    19   10   11 1
    20   11   12 1
    21   11   36 1
    22   11   37 1
    23   12   13 1
    24   12   38 1
    25   12   39 1
    26   13   14 1
    27   13   40 1
    28   14   19 ar
    29   14   15 ar
    30   15   16 ar
    31   15   41 1
    32   16   17 ar
    33   16   42 1
    34   17   18 ar
    35   17   20 1
    36   18   19 ar
    37   18   43 1
    38   19   44 1
    39   20   21 1
    40   21   22 1
    41   21   45 1
    42   21   46 1
    43   22   23 1
    44   22   47 1
    45   22   48 1
    46   23   28 1
    47   23   24 1
    48   23   49 1
    49   24   25 1
    50   24   50 1
    51   24   51 1
    52   25   26 1
    53   25   52 1
    54   25   53 1
    55   26   27 1
    56   26   54 1
    57   26   55 1
    58   27   28 1
    59   27   56 1
    60   27   57 1
    61   28   58 1
    62   28   59 1
@<TRIPOS>MOLECULE
ZINC38772724
   49    51     0     0     0
SMALL
USER_CHARGES

@<TRIPOS>ATOM
      1 C1          0.5534    0.5468   -2.8699 C.3       1 <0>        -0.1185
      2 C2          0.5748   -0.9098   -2.4840 C.ar      1 <0>        -0.0798
      3 C3          0.8916   -1.8699   -3.4266 C.ar      1 <0>        -0.1149
      4 C4          0.9112   -3.2060   -3.0726 C.ar      1 <0>        -0.0983
      5 C5          0.6144   -3.5819   -1.7759 C.ar      1 <0>        -0.0952
      6 C6          0.2985   -2.6217   -0.8330 C.ar      1 <0>        -0.1068
      7 C7          0.2831   -1.2852   -1.1859 C.ar      1 <0>        -0.1158
      8 C8          0.6348   -5.0386   -1.3902 C.3       1 <0>         0.2326
      9 H1          1.2265   -5.5981   -2.1148 H         1 <0>         0.1052
     10 C9         -0.7740   -5.5732   -1.3721 C.ar      1 <0>        -0.0895
     11 C10        -1.5928   -5.3272   -0.2858 C.ar      1 <0>        -0.1039
     12 C11        -2.8851   -5.8176   -0.2692 C.ar      1 <0>        -0.1192
     13 C12        -3.3588   -6.5537   -1.3391 C.ar      1 <0>        -0.1146
     14 C13        -2.5404   -6.7989   -2.4258 C.ar      1 <0>        -0.1158
     15 C14        -1.2495   -6.3049   -2.4442 C.ar      1 <0>        -0.1003
     16 N1          1.2291   -5.1830   -0.0589 N.am      1 <0>        -0.7193
     17 C15         1.8123   -6.3450    0.2963 C.2       1 <0>         0.5143
     18 O1          1.8451   -7.2711   -0.4862 O.2       1 <0>        -0.4998
     19 C16         2.4236   -6.4936    1.6657 C.3       1 <0>        -0.1149
     20 H2          1.7842   -6.0088    2.4035 H         1 <0>         0.1133
     21 C17         3.8064   -5.8391    1.6806 C.3       1 <0>        -0.1302
     22 S1          2.5838   -8.2550    2.0685 S.3       1 <0>        -0.0378
     23 C18         0.9205   -8.7978    2.2761 C.ar      1 <0>        -0.0810
     24 C19        -0.1216   -7.8794    2.2372 C.ar      1 <0>        -0.1166
     25 C20        -1.4241   -8.3079    2.4003 C.ar      1 <0>        -0.0834
     26 C21        -1.6923   -9.6505    2.6024 C.ar      1 <0>        -0.0402
     27 C22        -0.6565  -10.5676    2.6417 C.ar      1 <0>        -0.0891
     28 C23         0.6476  -10.1460    2.4735 C.ar      1 <0>        -0.0871
     29 Cl1        -3.3310  -10.1853    2.8077 Cl        1 <0>        -0.0668
     30 H3          1.5427    0.9779   -2.7163 H         1 <0>         0.0726
     31 H4          0.2752    0.6405   -3.9196 H         1 <0>         0.0680
     32 H5         -0.1731    1.0756   -2.2529 H         1 <0>         0.0677
     33 H6          1.1235   -1.5763   -4.4397 H         1 <0>         0.1255
     34 H7          1.1581   -3.9563   -3.8092 H         1 <0>         0.1249
     35 H8          0.0663   -2.9154    0.1800 H         1 <0>         0.1178
     36 H9          0.0399   -0.5347   -0.4484 H         1 <0>         0.1243
     37 H10        -1.2226   -4.7521    0.5501 H         1 <0>         0.1130
     38 H11        -3.5245   -5.6260    0.5798 H         1 <0>         0.1206
     39 H12        -4.3683   -6.9374   -1.3258 H         1 <0>         0.1216
     40 H13        -2.9104   -7.3743   -3.2615 H         1 <0>         0.1230
     41 H14        -0.6113   -6.4933   -3.2949 H         1 <0>         0.1212
     42 H15         1.2028   -4.4424    0.5669 H         1 <0>         0.4001
     43 H16         3.7085   -4.7775    1.4534 H         1 <0>         0.0807
     44 H17         4.2548   -5.9597    2.6668 H         1 <0>         0.0835
     45 H18         4.4412   -6.3138    0.9324 H         1 <0>         0.0752
     46 H19         0.0870   -6.8315    2.0799 H         1 <0>         0.1218
     47 H20        -2.2344   -7.5945    2.3705 H         1 <0>         0.1339
     48 H21        -0.8688  -11.6147    2.7999 H         1 <0>         0.1397
     49 H22         1.4550  -10.8628    2.4995 H         1 <0>         0.1382
@<TRIPOS>BOND
     1    1    2 1
     2    1   30 1
     3    1   31 1
     4    1   32 1
     5    2    7 ar
     6    2    3 ar
     7    3    4 ar
     8    3   33 1
     9    4    5 ar
    10    4   34 1
    11    5    6 ar
    12    5    8 1
    13    6    7 ar
    14    6   35 1
    15    7   36 1
    16    8    9 1
    17    8   10 1
    18    8   16 1
    19   10   15 ar
    20   10   11 ar
    21   11   12 ar
    22   11   37 1
    23   12   13 ar
    24   12   38 1
    25   13   14 ar
    26   13   39 1
    27   14   15 ar
    28   14   40 1
    29   15   41 1
    30   16   17 am
    31   16   42 1
    32   17   18 2
    33   17   19 1
    34   19   20 1
    35   19   21 1
    36   19   22 1
    37   21   43 1
    38   21   44 1
    39   21   45 1
    40   22   23 1
    41   23   28 ar
    42   23   24 ar
    43   24   25 ar
    44   24   46 1
    45   25   26 ar
    46   25   47 1
    47   26   27 ar
    48   26   29 1
    49   27   28 ar
    50   27   48 1
    51   28   49 1
@<TRIPOS>MOLECULE
ZINC59088824
   51    53     0     0     0
SMALL
USER_CHARGES

@<TRIPOS>ATOM
      1 C1          0.8283    0.0197   -1.2294 C.3       1 <0>        -0.1614
      2 C2         -0.0208    0.4593   -0.0350 C.3       1 <0>         0.1508
      3 H1          0.4775    0.1712    0.8906 H         1 <0>         0.1056
      4 C3         -0.1957    1.9557   -0.0666 C.ar      1 <0>        -0.1002
      5 C4         -1.1910    2.5190   -0.8431 C.ar      1 <0>        -0.1094
      6 C5         -1.3515    3.8917   -0.8721 C.ar      1 <0>        -0.1148
      7 C6         -0.5169    4.7011   -0.1242 C.ar      1 <0>        -0.1131
      8 C7          0.4778    4.1378    0.6530 C.ar      1 <0>        -0.1132
      9 C8          0.6355    2.7648    0.6853 C.ar      1 <0>        -0.1021
     10 N1         -1.3335   -0.1874   -0.1047 N.pl3     1 <0>        -0.5202
     11 C9         -1.6885   -1.0006   -1.2704 C.3       1 <0>         0.0889
     12 C10        -1.1497   -2.4205   -1.0849 C.3       1 <0>        -0.0974
     13 H2         -0.0795   -2.3827   -0.8819 H         1 <0>         0.0750
     14 C11        -1.4047   -3.2390   -2.3569 C.3       1 <0>        -0.1114
     15 C12        -0.7017   -4.5905   -2.2118 C.3       1 <0>        -0.0876
     16 C13        -1.0467   -5.2134   -0.8909 C.2       1 <0>        -0.1662
     17 C14        -1.5530   -4.5633    0.1074 C.2       1 <0>        -0.1488
     18 C15        -1.8713   -3.0959    0.0833 C.3       1 <0>        -0.0904
     19 C16        -2.2146   -0.0342    0.9037 C.2       1 <0>         0.5590
     20 S1         -3.7004   -0.8844    0.8787 S.2       1 <0>        -0.5475
     21 N2         -1.9260    0.7883    1.9316 N.pl3     1 <0>        -0.6819
     22 C17        -0.9687    0.4128    2.8806 C.ar      1 <0>         0.2133
     23 C18        -0.2883   -0.7901    2.7440 C.ar      1 <0>        -0.1827
     24 C19         0.6564   -1.1580    3.6819 C.ar      1 <0>        -0.0429
     25 C20         0.9247   -0.3296    4.7571 C.ar      1 <0>        -0.1286
     26 C21         0.2483    0.8694    4.8957 C.ar      1 <0>        -0.0441
     27 C22        -0.6932    1.2450    3.9578 C.ar      1 <0>        -0.1590
     28 Br1         2.2180   -0.8374    6.0400 Br        1 <0>        -0.0489
     29 H3          1.7752    0.5596   -1.2204 H         1 <0>         0.0808
     30 H4          1.0200   -1.0513   -1.1644 H         1 <0>         0.0766
     31 H5          0.2946    0.2377   -2.1545 H         1 <0>         0.0726
     32 H6         -1.8431    1.8867   -1.4274 H         1 <0>         0.1175
     33 H7         -2.1287    4.3319   -1.4793 H         1 <0>         0.1240
     34 H8         -0.6418    5.7736   -0.1474 H         1 <0>         0.1243
     35 H9          1.1301    4.7701    1.2370 H         1 <0>         0.1255
     36 H10         1.4103    2.3245    1.2954 H         1 <0>         0.1219
     37 H11        -2.7731   -1.0341   -1.3733 H         1 <0>         0.1203
     38 H12        -1.2519   -0.5605   -2.1670 H         1 <0>         0.0950
     39 H13        -2.4760   -3.3950   -2.4837 H         1 <0>         0.0723
     40 H14        -1.0039   -2.7084   -3.2205 H         1 <0>         0.0668
     41 H15        -1.0204   -5.2519   -3.0174 H         1 <0>         0.0728
     42 H16         0.3769   -4.4450   -2.2719 H         1 <0>         0.0704
     43 H17        -0.8614   -6.2700   -0.7654 H         1 <0>         0.1002
     44 H18        -1.7563   -5.1095    1.0167 H         1 <0>         0.1000
     45 H19        -1.5513   -2.6377    1.0192 H         1 <0>         0.0611
     46 H20        -2.9472   -2.9642   -0.0317 H         1 <0>         0.1075
     47 H21        -2.3818    1.6406    2.0136 H         1 <0>         0.4286
     48 H22        -0.4978   -1.4374    1.9053 H         1 <0>         0.1309
     49 H23         1.1858   -2.0934    3.5761 H         1 <0>         0.1359
     50 H24         0.4598    1.5141    5.7360 H         1 <0>         0.1382
     51 H25        -1.2180    2.1829    4.0642 H         1 <0>         0.1359
@<TRIPOS>BOND
     1    1    2 1
     2    1   29 1
     3    1   30 1
     4    1   31 1
     5    2    3 1
     6    2    4 1
     7    2   10 1
     8    4    9 ar
     9    4    5 ar
    10    5    6 ar
    11    5   32 1
    12    6    7 ar
    13    6   33 1
    14    7    8 ar
    15    7   34 1
    16    8    9 ar
    17    8   35 1
    18    9   36 1
    19   10   11 1
    20   10   19 1
    21   11   12 1
    22   11   37 1
    23   11   38 1
    24   12   13 1
    25   12   18 1
    26   12   14 1
    27   14   15 1
    28   14   39 1
    29   14   40 1
    30   15   16 1
    31   15   41 1
    32   15   42 1
    33   16   17 2
    34   16   43 1
    35   17   18 1
    36   17   44 1
    37   18   45 1
    38   18   46 1
    39   19   20 2
    40   19   21 1
    41   21   22 1
    42   21   47 1
    43   22   27 ar
    44   22   23 ar
    45   23   24 ar
    46   23   48 1
    47   24   25 ar
    48   24   49 1
    49   25   26 ar
    50   25   28 1
    51   26   27 ar
    52   26   50 1
    53   27   51 1
@<TRIPOS>MOLECULE
ZINC66169717
   60    62     0     0     0
SMALL
USER_CHARGES

@<TRIPOS>ATOM
      1 C1         -0.1662    1.2464    0.2903 C.3       1 <0>        -0.1529
      2 C2         -0.1178   -0.2609    0.0318 C.3       1 <0>        -0.1123
      3 C3          0.6991   -0.5355   -1.2324 C.3       1 <0>        -0.0458
      4 H1          1.6842   -0.0795   -1.1346 H         1 <0>         0.0847
      5 C4         -0.0207    0.0600   -2.4440 C.3       1 <0>        -0.1441
      6 C5          0.8505   -2.0232   -1.4193 C.ar      1 <0>        -0.1038
      7 C6         -0.2690   -2.8184   -1.5720 C.ar      1 <0>        -0.0786
      8 C7         -0.1308   -4.1832   -1.7430 C.ar      1 <0>        -0.1546
      9 C8          1.1277   -4.7561   -1.7621 C.ar      1 <0>        -0.0852
     10 C9          2.2500   -3.9655   -1.6102 C.ar      1 <0>        -0.2086
     11 C10         2.1142   -2.5946   -1.4438 C.ar      1 <0>         0.1323
     12 O1          3.2172   -1.8139   -1.2998 O.3       1 <0>        -0.3013
     13 C11         4.4774   -2.4815   -1.2099 C.3       1 <0>         0.0726
     14 H2          4.3532   -3.4212   -0.6717 H         1 <0>         0.0789
     15 C12         5.0054   -2.7660   -2.6175 C.3       1 <0>        -0.1786
     16 C13         5.4731   -1.5929   -0.4617 C.3       1 <0>         0.1336
     17 N1          5.0274   -1.4185    0.9229 N.pl3     1 <0>        -0.7407
     18 C14         5.7815   -0.6395    1.8080 C.ar      1 <0>         0.1973
     19 C15         6.9484   -0.0270    1.3745 C.ar      1 <0>        -0.1695
     20 C16         7.6912    0.7422    2.2504 C.ar      1 <0>        -0.1052
     21 C17         7.2743    0.9032    3.5587 C.ar      1 <0>        -0.1403
     22 C18         6.1122    0.2958    3.9978 C.ar      1 <0>        -0.1636
     23 C19         5.3594   -0.4723    3.1251 C.ar      1 <0>         0.0567
     24 O2          4.2135   -1.0661    3.5542 O.3       1 <0>        -0.3130
     25 C20         3.8423   -0.8508    4.9173 C.3       1 <0>         0.1070
     26 C21         2.5564   -1.5804    5.2090 C.ar      1 <0>        -0.0961
     27 C22         1.3431   -0.9473    5.0146 C.ar      1 <0>        -0.0940
     28 C23         0.1635   -1.6165    5.2822 C.ar      1 <0>        -0.1220
     29 C24         0.1972   -2.9190    5.7438 C.ar      1 <0>        -0.1093
     30 C25         1.4106   -3.5525    5.9374 C.ar      1 <0>        -0.1232
     31 C26         2.5900   -2.8847    5.6657 C.ar      1 <0>        -0.0959
     32 H3          0.8473    1.6249    0.4232 H         1 <0>         0.0535
     33 H4         -0.6322    1.7459   -0.5590 H         1 <0>         0.0563
     34 H5         -0.7481    1.4420    1.1910 H         1 <0>         0.0528
     35 H6          0.3482   -0.7604    0.8812 H         1 <0>         0.0611
     36 H7         -1.1312   -0.6394   -0.1010 H         1 <0>         0.0604
     37 H8          0.5613   -0.1356   -3.3447 H         1 <0>         0.0534
     38 H9         -1.0058   -0.3960   -2.5418 H         1 <0>         0.0545
     39 H10        -0.1302    1.1361   -2.3089 H         1 <0>         0.0600
     40 H11        -1.2530   -2.3733   -1.5574 H         1 <0>         0.1265
     41 H12        -1.0072   -4.8032   -1.8615 H         1 <0>         0.1224
     42 H13         1.2331   -5.8226   -1.8954 H         1 <0>         0.1227
     43 H14         3.2327   -4.4133   -1.6252 H         1 <0>         0.1273
     44 H15         5.9666   -3.2753   -2.5490 H         1 <0>         0.0759
     45 H16         4.2960   -3.3991   -3.1506 H         1 <0>         0.0693
     46 H17         5.1296   -1.8264   -3.1558 H         1 <0>         0.0721
     47 H18         6.4568   -2.0624   -0.4703 H         1 <0>         0.0788
     48 H19         5.5305   -0.6202   -0.9503 H         1 <0>         0.0711
     49 H20         4.2096   -1.8428    1.2262 H         1 <0>         0.4065
     50 H21         7.2765   -0.1515    0.3532 H         1 <0>         0.1259
     51 H22         8.5996    1.2182    1.9120 H         1 <0>         0.1220
     52 H23         7.8579    1.5048    4.2398 H         1 <0>         0.1206
     53 H24         5.7894    0.4236    5.0205 H         1 <0>         0.1255
     54 H25         4.6293   -1.2258    5.5717 H         1 <0>         0.0687
     55 H26         3.7024    0.2160    5.0916 H         1 <0>         0.0690
     56 H27         1.3167    0.0704    4.6539 H         1 <0>         0.1231
     57 H28        -0.7844   -1.1216    5.1309 H         1 <0>         0.1248
     58 H29        -0.7243   -3.4417    5.9536 H         1 <0>         0.1239
     59 H30         1.4369   -4.5701    6.2984 H         1 <0>         0.1247
     60 H31         3.5379   -3.3809    5.8134 H         1 <0>         0.1229
@<TRIPOS>BOND
     1    1    2 1
     2    1   32 1
     3    1   33 1
     4    1   34 1
     5    2    3 1
     6    2   35 1
     7    2   36 1
     8    3    4 1
     9    3    5 1
    10    3    6 1
    11    5   37 1
    12    5   38 1
    13    5   39 1
    14    6   11 ar
    15    6    7 ar
    16    7    8 ar
    17    7   40 1
    18    8    9 ar
    19    8   41 1
    20    9   10 ar
    21    9   42 1
    22   10   11 ar
    23   10   43 1
    24   11   12 1
    25   12   13 1
    26   13   14 1
    27   13   15 1
    28   13   16 1
    29   15   44 1
    30   15   45 1
    31   15   46 1
    32   16   17 1
    33   16   47 1
    34   16   48 1
    35   17   18 1
    36   17   49 1
    37   18   23 ar
    38   18   19 ar
    39   19   20 ar
    40   19   50 1
    41   20   21 ar
    42   20   51 1
    43   21   22 ar
    44   21   52 1
    45   22   23 ar
    46   22   53 1
    47   23   24 1
    48   24   25 1
    49   25   26 1
    50   25   54 1
    51   25   55 1
    52   26   31 ar
    53   26   27 ar
    54   27   28 ar
    55   27   56 1
    56   28   29 ar
    57   28   57 1
    58   29   30 ar
    59   29   58 1
    60   30   31 ar
    61   30   59 1
    62   31   60 1
@<TRIPOS>MOLECULE
ZINC20178463
   52    55     0     0     0
SMALL
USER_CHARGES
2-[4-(trifluoromethyl)phenyl]-3-[(3,4,5-trimethoxyphenyl)amino]inden-1-one
@<TRIPOS>ATOM
      1 C1          0.9651    5.2070    4.3923 C.3       1 <0>         0.0246
      2 O1         -0.0846    4.2913    4.0735 O.3       1 <0>        -0.3086
      3 C2         -0.6002    4.3565    2.8168 C.ar      1 <0>         0.1636
      4 C3         -0.0355    5.2062    1.8794 C.ar      1 <0>        -0.2617
      5 C4         -0.5587    5.2687    0.5937 C.ar      1 <0>         0.2354
      6 C5         -1.6555    4.4876    0.2509 C.ar      1 <0>        -0.2839
      7 C6         -2.2244    3.6418    1.1893 C.ar      1 <0>         0.1620
      8 C7         -1.6977    3.5748    2.4742 C.ar      1 <0>        -0.0264
      9 O2         -2.2561    2.7436    3.3965 O.3       1 <0>        -0.3113
     10 C8         -3.3036    3.2825    4.2055 C.3       1 <0>         0.0324
     11 O3         -3.2982    2.8777    0.8538 O.3       1 <0>        -0.3078
     12 C9         -3.7869    2.9973   -0.4837 C.3       1 <0>         0.0245
     13 N1          0.0144    6.1210   -0.3525 N.2       1 <0>        -0.6191
     14 C10         0.4520    5.6203   -1.5479 C.2       1 <0>         0.3204
     15 C11         0.9060    6.3750   -2.6159 C.2       1 <0>        -0.4373
     16 C12         1.2789    5.4606   -3.7007 C.2       1 <0>         0.4431
     17 O4          1.7187    5.7729   -4.7902 O.3       1 <0>        -0.5106
     18 C13         1.0178    4.0778   -3.2149 C.ar      1 <0>        -0.1421
     19 C14         0.5214    4.1831   -1.9035 C.ar      1 <0>        -0.0760
     20 C15         0.1960    3.0321   -1.2009 C.ar      1 <0>        -0.1042
     21 C16         0.3658    1.7865   -1.7933 C.ar      1 <0>        -0.1134
     22 C17         0.8560    1.6865   -3.0774 C.ar      1 <0>        -0.1270
     23 C18         1.1782    2.8336   -3.7956 C.ar      1 <0>        -0.0782
     24 C19         0.9997    7.8505   -2.6562 C.ar      1 <0>         0.1255
     25 C20        -0.1582    8.6281   -2.6006 C.ar      1 <0>        -0.1156
     26 C21        -0.0635   10.0040   -2.6328 C.ar      1 <0>        -0.0730
     27 C22         1.1749   10.6131   -2.7316 C.ar      1 <0>        -0.2209
     28 C23         2.3262    9.8480   -2.7928 C.ar      1 <0>        -0.0724
     29 C24         2.2459    8.4713   -2.7558 C.ar      1 <0>        -0.1263
     30 C25         1.2703   12.1166   -2.7731 C.3       1 <0>         0.5109
     31 F1          1.2095   12.5512   -4.1014 F         1 <0>        -0.1840
     32 F2          0.2077   12.6713   -2.0518 F         1 <0>        -0.1835
     33 F3          2.4823   12.5228   -2.2045 F         1 <0>        -0.1837
     34 H1          1.2876    5.0476    5.4318 H         1 <0>         0.0967
     35 H2          0.6002    6.2381    4.2756 H         1 <0>         0.0558
     36 H3          1.8155    5.0402    3.7148 H         1 <0>         0.0568
     37 H4          0.8142    5.8168    2.1468 H         1 <0>         0.1289
     38 H5         -2.0648    4.5400   -0.7472 H         1 <0>         0.1252
     39 H6         -3.6625    2.5109    4.9025 H         1 <0>         0.0840
     40 H7         -4.1332    3.6092    3.5613 H         1 <0>         0.0390
     41 H8         -2.9214    4.1422    4.7754 H         1 <0>         0.0388
     42 H9         -4.6506    2.3298   -0.6195 H         1 <0>         0.0972
     43 H10        -2.9922    2.7172   -1.1908 H         1 <0>         0.0573
     44 H11        -4.0940    4.0370   -0.6702 H         1 <0>         0.0543
     45 H12        -0.1892    3.1039   -0.1945 H         1 <0>         0.1345
     46 H13         0.1118    0.8918   -1.2443 H         1 <0>         0.1217
     47 H14         0.9844    0.7144   -3.5302 H         1 <0>         0.1223
     48 H15         1.5637    2.7517   -4.8012 H         1 <0>         0.1230
     49 H16        -1.1257    8.1537   -2.5281 H         1 <0>         0.1231
     50 H17        -0.9583   10.6069   -2.5850 H         1 <0>         0.1214
     51 H18         3.2898   10.3297   -2.8695 H         1 <0>         0.1218
     52 H19         3.1452    7.8753   -2.8040 H         1 <0>         0.1229
@<TRIPOS>BOND
     1    1    2 1
     2    1   34 1
     3    1   35 1
     4    1   36 1
     5    2    3 1
     6    3    8 ar
     7    3    4 ar
     8    4    5 ar
     9    4   37 1
    10    5    6 ar
    11    5   13 1
    12    6    7 ar
    13    6   38 1
    14    7    8 ar
    15    7   11 1
    16    8    9 1
    17    9   10 1
    18   10   39 1
    19   10   40 1
    20   10   41 1
    21   11   12 1
    22   12   42 1
    23   12   43 1
    24   12   44 1
    25   13   14 2
    26   14   19 1
    27   14   15 1
    28   15   16 2
    29   15   24 1
    30   16   17 1
    31   16   18 1
    32   18   23 ar
    33   18   19 ar
    34   19   20 ar
    35   20   21 ar
    36   20   45 1
    37   21   22 ar
    38   21   46 1
    39   22   23 ar
    40   22   47 1
    41   23   48 1
    42   24   29 ar
    43   24   25 ar
    44   25   26 ar
    45   25   49 1
    46   26   27 ar
    47   26   50 1
    48   27   28 ar
    49   27   30 1
    50   28   29 ar
    51   28   51 1
    52   29   52 1
    53   30   31 1
    54   30   32 1
    55   30   33 1
@<TRIPOS>MOLECULE
ZINC33587324
   43    45     0     0     0
SMALL
USER_CHARGES
4-chloro-N-[4-(2-methylphenoxy)phenyl]-3-(trifluoromethyl)benzenesulfonamide
@<TRIPOS>ATOM
      1 C1          2.9759   -6.1463   -5.8821 C.3       1 <0>        -0.1028
      2 C2          2.7526   -6.3296   -4.4031 C.ar      1 <0>        -0.1221
      3 C3          3.4465   -7.3062   -3.7149 C.ar      1 <0>        -0.0901
      4 C4          3.2424   -7.4746   -2.3580 C.ar      1 <0>        -0.1601
      5 C5          2.3437   -6.6665   -1.6858 C.ar      1 <0>        -0.0889
      6 C6          1.6513   -5.6853   -2.3680 C.ar      1 <0>        -0.1894
      7 C7          1.8504   -5.5176   -3.7312 C.ar      1 <0>         0.1289
      8 O1          1.1670   -4.5561   -4.4056 O.3       1 <0>        -0.2516
      9 C8          0.3570   -3.7291   -3.6920 C.ar      1 <0>         0.0177
     10 C9         -1.0207   -3.8242   -3.8244 C.ar      1 <0>        -0.1040
     11 C10        -1.8439   -2.9847   -3.1001 C.ar      1 <0>        -0.1455
     12 C11        -1.2923   -2.0452   -2.2390 C.ar      1 <0>         0.2233
     13 C12         0.0870   -1.9470   -2.1110 C.ar      1 <0>        -0.1482
     14 C13         0.9087   -2.7910   -2.8317 C.ar      1 <0>        -0.1176
     15 N1         -2.1258   -1.1939   -1.5052 N.2       1 <0>        -1.0762
     16 S1         -2.2691    0.3985   -1.9364 S.o2      1 <0>         2.5858
     17 O2         -0.9482    0.9132   -2.0345 O.2       1 <0>        -1.0297
     18 O3         -3.2458    0.9664   -1.0745 O.2       1 <0>        -0.9907
     19 C14        -2.9474    0.4391   -3.5621 C.ar      1 <0>        -0.6529
     20 C15        -2.1101    0.5374   -4.6580 C.ar      1 <0>         0.0135
     21 C16        -2.6415    0.5697   -5.9332 C.ar      1 <0>        -0.1338
     22 C17        -4.0119    0.5031   -6.1133 C.ar      1 <0>         0.0369
     23 C18        -4.8490    0.4038   -5.0165 C.ar      1 <0>        -0.2067
     24 C19        -4.3162    0.3720   -3.7413 C.ar      1 <0>         0.0327
     25 C20        -6.3415    0.3301   -5.2118 C.3       1 <0>         0.5123
     26 F1         -6.9707    0.2352   -3.9659 F         1 <0>        -0.1714
     27 F2         -6.7830    1.4826   -5.8706 F         1 <0>        -0.1734
     28 F3         -6.6563   -0.7958   -5.9802 F         1 <0>        -0.1719
     29 Cl1        -4.6802    0.5442   -7.7149 Cl        1 <0>        -0.0521
     30 H1          3.7204   -6.8758   -6.2337 H         1 <0>         0.0604
     31 H2          3.3422   -5.1270   -6.0740 H         1 <0>         0.0678
     32 H3          2.0281   -6.3024   -6.4181 H         1 <0>         0.0675
     33 H4          4.1492   -7.9383   -4.2374 H         1 <0>         0.1241
     34 H5          3.7861   -8.2383   -1.8218 H         1 <0>         0.1191
     35 H6          2.1861   -6.8001   -0.6258 H         1 <0>         0.1218
     36 H7          0.9528   -5.0516   -1.8418 H         1 <0>         0.1353
     37 H8         -1.4495   -4.5548   -4.4944 H         1 <0>         0.1160
     38 H9         -2.9164   -3.0592   -3.2030 H         1 <0>         0.1198
     39 H10         0.5168   -1.2135   -1.4449 H         1 <0>         0.1255
     40 H11         1.9813   -2.7178   -2.7289 H         1 <0>         0.1143
     41 H12        -1.0405    0.5894   -4.5173 H         1 <0>         0.1526
     42 H13        -1.9874    0.6466   -6.7891 H         1 <0>         0.1466
     43 H14        -4.9695    0.2904   -2.8852 H         1 <0>         0.1571
@<TRIPOS>BOND
     1    1    2 1
     2    1   30 1
     3    1   31 1
     4    1   32 1
     5    2    7 ar
     6    2    3 ar
     7    3    4 ar
     8    3   33 1
     9    4    5 ar
    10    4   34 1
    11    5    6 ar
    12    5   35 1
    13    6    7 ar
    14    6   36 1
    15    7    8 1
    16    8    9 1
    17    9   14 ar
    18    9   10 ar
    19   10   11 ar
    20   10   37 1
    21   11   12 ar
    22   11   38 1
    23   12   13 ar
    24   12   15 1
    25   13   14 ar
    26   13   39 1
    27   14   40 1
    28   15   16 1
    29   16   17 2
    30   16   18 2
    31   16   19 1
    32   19   24 ar
    33   19   20 ar
    34   20   21 ar
    35   20   41 1
    36   21   22 ar
    37   21   42 1
    38   22   23 ar
    39   22   29 1
    40   23   24 ar
    41   23   25 1
    42   24   43 1
    43   25   26 1
    44   25   27 1
    45   25   28 1
@<TRIPOS>MOLECULE
ZINC39887351
   53    56     0     0     0
SMALL
USER_CHARGES

@<TRIPOS>ATOM
      1 C1          1.2632   -2.0055   -2.7625 C.3       1 <0>        -0.1528
      2 C2          0.6428   -1.7691   -1.3840 C.3       1 <0>        -0.1257
      3 C3         -0.7926   -2.2987   -1.3731 C.3       1 <0>        -0.1134
      4 C4         -1.4130   -2.0624    0.0053 C.3       1 <0>        -0.0776
      5 C5         -2.8268   -2.5840    0.0160 C.ar      1 <0>        -0.0871
      6 C6         -3.8712   -1.7537   -0.3472 C.ar      1 <0>        -0.1099
      7 C7         -5.1680   -2.2287   -0.3389 C.ar      1 <0>        -0.1016
      8 C8         -5.4225   -3.5420    0.0348 C.ar      1 <0>         0.1718
      9 C9         -4.3712   -4.3733    0.3991 C.ar      1 <0>        -0.1010
     10 C10        -3.0762   -3.8936    0.3836 C.ar      1 <0>        -0.1079
     11 N1         -6.7343   -4.0260    0.0448 N.pl3     1 <0>        -0.5702
     12 C11        -7.4806   -4.1852   -1.2078 C.3       1 <0>         0.4675
     13 H1         -6.7924   -4.1202   -2.0506 H         1 <0>         0.1232
     14 N2         -8.1481   -5.4881   -1.2237 N.am      1 <0>        -0.7343
     15 C12        -8.5610   -6.0616   -0.0759 C.2       1 <0>         0.5999
     16 O1         -9.1530   -7.1256   -0.1014 O.2       1 <0>        -0.5608
     17 C13        -8.2933   -5.3981    1.2022 C.2       1 <0>        -0.3238
     18 C14        -7.3446   -4.3658    1.2266 C.2       1 <0>         0.4502
     19 S1         -6.9538   -3.5294    2.7273 S.3       1 <0>        -0.7674
     20 C15        -8.9789   -5.7962    2.3947 C.1       1 <0>         0.3382
     21 N3         -9.5228   -6.1120    3.3407 N.1       1 <0>        -0.4971
     22 C16        -8.5130   -3.0930   -1.3185 C.2       1 <0>        -0.0335
     23 C17        -9.6997   -3.1947   -1.9483 C.2       1 <0>        -0.1838
     24 C18       -10.3479   -1.9508   -1.8110 C.2       1 <0>        -0.1848
     25 C19        -9.5121   -1.1504   -1.0975 C.2       1 <0>         0.0234
     26 O2         -8.4055   -1.8584   -0.8006 O.3       1 <0>        -0.1322
     27 C20        -9.7747    0.2513   -0.7098 C.ar      1 <0>        -0.0104
     28 C21       -10.2018    1.1748   -1.6655 C.ar      1 <0>        -0.0845
     29 C22       -10.4451    2.4817   -1.2972 C.ar      1 <0>        -0.1228
     30 C23       -10.2671    2.8787    0.0165 C.ar      1 <0>        -0.1014
     31 C24        -9.8438    1.9697    0.9692 C.ar      1 <0>        -0.1148
     32 C25        -9.6024    0.6567    0.6157 C.ar      1 <0>        -0.0288
     33 Cl1        -9.0791   -0.4851    1.8140 Cl        1 <0>        -0.0086
     34 H2          2.2858   -1.6282   -2.7702 H         1 <0>         0.0511
     35 H3          1.2683   -3.0735   -2.9803 H         1 <0>         0.0532
     36 H4          0.6775   -1.4832   -3.5189 H         1 <0>         0.0530
     37 H5          1.2285   -2.2915   -0.6275 H         1 <0>         0.0605
     38 H6          0.6377   -0.7011   -1.1662 H         1 <0>         0.0603
     39 H7         -1.3783   -1.7764   -2.1296 H         1 <0>         0.0626
     40 H8         -0.7875   -3.3667   -1.5910 H         1 <0>         0.0629
     41 H9         -0.8273   -2.5847    0.7618 H         1 <0>         0.0693
     42 H10        -1.4181   -0.9944    0.2232 H         1 <0>         0.0691
     43 H11        -3.6727   -0.7325   -0.6374 H         1 <0>         0.1187
     44 H12        -5.9833   -1.5796   -0.6224 H         1 <0>         0.1242
     45 H13        -4.5657   -5.3949    0.6906 H         1 <0>         0.1205
     46 H14        -2.2578   -4.5406    0.6628 H         1 <0>         0.1197
     47 H15        -8.2949   -5.9427   -2.0680 H         1 <0>         0.4060
     48 H16       -10.0818   -4.0647   -2.4616 H         1 <0>         0.1498
     49 H17       -11.3204   -1.6847   -2.1981 H         1 <0>         0.1482
     50 H18       -10.3409    0.8669   -2.6913 H         1 <0>         0.1344
     51 H19       -10.7752    3.1969   -2.0360 H         1 <0>         0.1313
     52 H20       -10.4592    3.9033    0.2991 H         1 <0>         0.1314
     53 H21        -9.7064    2.2862    1.9926 H         1 <0>         0.1357
@<TRIPOS>BOND
     1    1    2 1
     2    1   34 1
     3    1   35 1
     4    1   36 1
     5    2    3 1
     6    2   37 1
     7    2   38 1
     8    3    4 1
     9    3   39 1
    10    3   40 1
    11    4    5 1
    12    4   41 1
    13    4   42 1
    14    5   10 ar
    15    5    6 ar
    16    6    7 ar
    17    6   43 1
    18    7    8 ar
    19    7   44 1
    20    8    9 ar
    21    8   11 1
    22    9   10 ar
    23    9   45 1
    24   10   46 1
    25   11   18 1
    26   11   12 1
    27   12   13 1
    28   12   14 1
    29   12   22 1
    30   14   15 am
    31   14   47 1
    32   15   16 2
    33   15   17 1
    34   17   18 2
    35   17   20 1
    36   18   19 1
    37   20   21 3
    38   22   26 1
    39   22   23 2
    40   23   24 1
    41   23   48 1
    42   24   25 2
    43   24   49 1
    44   25   26 1
    45   25   27 1
    46   27   32 ar
    47   27   28 ar
    48   28   29 ar
    49   28   50 1
    50   29   30 ar
    51   29   51 1
    52   30   31 ar
    53   30   52 1
    54   31   32 ar
    55   31   53 1
    56   32   33 1
@<TRIPOS>MOLECULE
ZINC40944809
   57    60     0     0     0
SMALL
USER_CHARGES

@<TRIPOS>ATOM
      1 C1         -0.0187    1.5258    0.0104 C.3       1 <0>        -0.1467
      2 C2          0.0021   -0.0041    0.0020 C.3       1 <0>        -0.0633
      3 C3          0.7421   -0.5109    1.2415 C.3       1 <0>        -0.1432
      4 C4         -1.4333   -0.5336    0.0129 C.3       1 <0>        -0.1424
      5 C5          0.7182   -0.4975   -1.2568 C.3       1 <0>        -0.0685
      6 H1          0.7339   -1.5873   -1.2644 H         1 <0>         0.0735
      7 C6         -0.0172    0.0136   -2.4990 C.3       1 <0>        -0.1118
      8 C7          0.5387   -0.6691   -3.7507 C.3       1 <0>        -0.0593
      9 C8          2.0525   -0.5151   -3.7588 C.2       1 <0>        -0.0200
     10 C9          2.7314   -0.1984   -2.6367 C.2       1 <0>        -0.2384
     11 S1          4.4263   -0.1339   -3.1388 S.3       1 <0>         0.0043
     12 C10         4.2585   -0.5100   -4.7667 C.2       1 <0>         0.2528
     13 C11         2.8916   -0.6876   -4.9337 C.2       1 <0>        -0.3254
     14 C12         2.3206   -1.0338   -6.2349 C.2       1 <0>         0.5764
     15 O1          1.9774   -0.1540   -7.0020 O.2       1 <0>        -0.5250
     16 O2          2.1746   -2.3285   -6.5846 O.3       1 <0>        -0.3528
     17 C13         1.6099   -2.5936   -7.8702 C.3       1 <0>         0.0346
     18 N1          5.2520   -0.6183   -5.7202 N.2       1 <0>        -1.0245
     19 S2          6.8337   -0.3641   -5.3007 S.o2      1 <0>         2.6035
     20 O3          6.9440    1.0071   -4.9445 O.2       1 <0>        -1.0082
     21 O4          7.1917   -1.4133   -4.4117 O.2       1 <0>        -1.0062
     22 C14         7.8010   -0.5857   -6.7566 C.ar      1 <0>        -0.6154
     23 C15         8.2937   -1.8519   -7.0673 C.ar      1 <0>        -0.0315
     24 C16         9.0443   -2.0572   -8.1838 C.ar      1 <0>        -0.1323
     25 C17         9.3283   -0.9785   -9.0388 C.ar      1 <0>        -0.0185
     26 C18        10.0994   -1.1517  -10.2009 C.ar      1 <0>        -0.1180
     27 C19        10.3538   -0.0839  -11.0055 C.ar      1 <0>        -0.1048
     28 C20         9.8609    1.1822  -10.6949 C.ar      1 <0>        -0.1320
     29 C21         9.1107    1.3875   -9.5782 C.ar      1 <0>        -0.0864
     30 C22         8.8270    0.3089   -8.7231 C.ar      1 <0>        -0.0779
     31 C23         8.0512    0.4810   -7.5639 C.ar      1 <0>         0.0094
     32 C24         2.1576    0.0378   -1.2730 C.3       1 <0>        -0.0166
     33 H2          1.0039    1.9031    0.0027 H         1 <0>         0.0608
     34 H3         -0.5459    1.8868   -0.8726 H         1 <0>         0.0576
     35 H4         -0.5289    1.8773    0.9072 H         1 <0>         0.0485
     36 H5          0.2319   -0.1594    2.1383 H         1 <0>         0.0497
     37 H6          0.7568   -1.6008    1.2356 H         1 <0>         0.0536
     38 H7          1.7647   -0.1336    1.2338 H         1 <0>         0.0591
     39 H8         -1.9605   -0.1726   -0.8702 H         1 <0>         0.0584
     40 H9         -1.4185   -1.6235    0.0069 H         1 <0>         0.0532
     41 H10        -1.9435   -0.1821    0.9097 H         1 <0>         0.0500
     42 H11        -1.0804   -0.2086   -2.4073 H         1 <0>         0.0655
     43 H12         0.1202    1.0916   -2.5832 H         1 <0>         0.0662
     44 H13         0.2789   -1.7276   -3.7357 H         1 <0>         0.0717
     45 H14         0.1186   -0.1998   -4.6402 H         1 <0>         0.0676
     46 H15         0.6109   -2.1611   -7.9245 H         1 <0>         0.0498
     47 H16         2.2398   -2.1511   -8.6419 H         1 <0>         0.0530
     48 H17         1.5484   -3.6708   -8.0250 H         1 <0>         0.0894
     49 H18         8.0769   -2.6825   -6.4120 H         1 <0>         0.1386
     50 H19         9.4200   -3.0438   -8.4115 H         1 <0>         0.1324
     51 H20        10.4883   -2.1269  -10.4540 H         1 <0>         0.1280
     52 H21        10.9470   -0.2197  -11.8978 H         1 <0>         0.1227
     53 H22        10.0777    2.0129  -11.3502 H         1 <0>         0.1237
     54 H23         8.7356    2.3743   -9.3500 H         1 <0>         0.1310
     55 H24         7.6589    1.4555   -7.3130 H         1 <0>         0.1442
     56 H25         2.1546    1.1063   -1.0573 H         1 <0>         0.0715
     57 H26         2.7530   -0.4867   -0.5257 H         1 <0>         0.0684
@<TRIPOS>BOND
     1    1    2 1
     2    1   33 1
     3    1   34 1
     4    1   35 1
     5    2    3 1
     6    2    4 1
     7    2    5 1
     8    3   36 1
     9    3   37 1
    10    3   38 1
    11    4   39 1
    12    4   40 1
    13    4   41 1
    14    5    6 1
    15    5   32 1
    16    5    7 1
    17    7    8 1
    18    7   42 1
    19    7   43 1
    20    8    9 1
    21    8   44 1
    22    8   45 1
    23    9   13 1
    24    9   10 2
    25   10   11 1
    26   10   32 1
    27   11   12 1
    28   12   13 2
    29   12   18 1
    30   13   14 1
    31   14   15 2
    32   14   16 1
    33   16   17 1
    34   17   46 1
    35   17   47 1
    36   17   48 1
    37   18   19 1
    38   19   20 2
    39   19   21 2
    40   19   22 1
    41   22   31 ar
    42   22   23 ar
    43   23   24 ar
    44   23   49 1
    45   24   25 ar
    46   24   50 1
    47   25   30 ar
    48   25   26 ar
    49   26   27 ar
    50   26   51 1
    51   27   28 ar
    52   27   52 1
    53   28   29 ar
    54   28   53 1
    55   29   30 ar
    56   29   54 1
    57   30   31 ar
    58   31   55 1
    59   32   56 1
    60   32   57 1
@<TRIPOS>MOLECULE
ZINC44847561
   47    49     0     0     0
SMALL
USER_CHARGES

@<TRIPOS>ATOM
      1 C1         -0.2553    1.4199   -0.0570 C.3       1 <0>        -0.1391
      2 C2          0.0379   -0.0779    0.0504 C.3       1 <0>        -0.0329
      3 C3          0.9382   -0.3359    1.2603 C.3       1 <0>        -0.1387
      4 C4         -1.2757   -0.8439    0.2196 C.3       1 <0>        -0.1447
      5 C5          0.7338   -0.5446   -1.2022 C.ar      1 <0>        -0.0478
      6 C6          0.1520   -1.5227   -1.9895 C.ar      1 <0>        -0.1392
      7 C7          0.7835   -1.9549   -3.1370 C.ar      1 <0>        -0.0629
      8 C8          2.0130   -1.4026   -3.5039 C.ar      1 <0>        -0.1570
      9 C9          2.5942   -0.4154   -2.7046 C.ar      1 <0>        -0.0715
     10 C10         1.9490    0.0110   -1.5626 C.ar      1 <0>        -0.1323
     11 C11         2.6957   -1.8609   -4.7313 C.2       1 <0>         0.4421
     12 O1          2.1291   -2.6173   -5.4956 O.2       1 <0>        -0.4572
     13 C12         4.0674   -1.3996   -5.0299 C.ar      1 <0>        -0.1216
     14 C13         4.9730   -1.1740   -3.9901 C.ar      1 <0>        -0.1912
     15 C14         6.2531   -0.7438   -4.2717 C.ar      1 <0>        -0.0721
     16 C15         6.6451   -0.5344   -5.5812 C.ar      1 <0>        -0.2413
     17 C16         5.7520   -0.7559   -6.6232 C.ar      1 <0>         0.2714
     18 C17         4.4647   -1.1933   -6.3517 C.ar      1 <0>        -0.1186
     19 N1          6.1531   -0.5423   -7.9443 N.2       1 <0>        -1.0838
     20 S1          7.6925   -0.0253   -8.2689 S.o2      1 <0>         2.6288
     21 O2          7.8016    1.2866   -7.7339 O.2       1 <0>        -1.0157
     22 O3          8.5644   -1.0795   -7.8848 O.2       1 <0>        -1.0171
     23 C18         7.8314    0.1311  -10.0184 C.2       1 <0>        -0.6556
     24 C19         7.5815    1.2087  -10.8013 C.2       1 <0>        -0.0465
     25 C20         7.7613    1.1010  -12.1679 C.2       1 <0>        -0.1319
     26 C21         8.1825   -0.0804  -12.6842 C.2       1 <0>        -0.1751
     27 S2          8.3454   -1.0866  -11.2185 S.3       1 <0>         0.2107
     28 Br1         8.5174   -0.5400  -14.4876 Br        1 <0>         0.0356
     29 H1          0.6805    1.9656   -0.1775 H         1 <0>         0.0592
     30 H2         -0.8967    1.6037   -0.9189 H         1 <0>         0.0570
     31 H3         -0.7587    1.7575    0.8490 H         1 <0>         0.0574
     32 H4          0.4348    0.0017    2.1663 H         1 <0>         0.0573
     33 H5          1.1471   -1.4029    1.3368 H         1 <0>         0.0569
     34 H6          1.8740    0.2099    1.1398 H         1 <0>         0.0591
     35 H7         -1.9171   -0.6601   -0.6424 H         1 <0>         0.0593
     36 H8         -1.0668   -1.9109    0.2961 H         1 <0>         0.0592
     37 H9         -1.7790   -0.5063    1.1256 H         1 <0>         0.0570
     38 H10        -0.7986   -1.9488   -1.7046 H         1 <0>         0.1285
     39 H11         0.3287   -2.7188   -3.7502 H         1 <0>         0.1306
     40 H12         3.5448    0.0156   -2.9822 H         1 <0>         0.1500
     41 H13         2.3951    0.7773   -0.9460 H         1 <0>         0.1250
     42 H14         4.6708   -1.3360   -2.9660 H         1 <0>         0.1166
     43 H15         6.9516   -0.5696   -3.4666 H         1 <0>         0.1108
     44 H16         7.6485   -0.1972   -5.7951 H         1 <0>         0.1010
     45 H17         3.7705   -1.3699   -7.1600 H         1 <0>         0.1224
     46 H18         7.2466    2.1378  -10.3642 H         1 <0>         0.1527
     47 H19         7.5689    1.9445  -12.8144 H         1 <0>         0.1452
@<TRIPOS>BOND
     1    1    2 1
     2    1   29 1
     3    1   30 1
     4    1   31 1
     5    2    3 1
     6    2    4 1
     7    2    5 1
     8    3   32 1
     9    3   33 1
    10    3   34 1
    11    4   35 1
    12    4   36 1
    13    4   37 1
    14    5   10 ar
    15    5    6 ar
    16    6    7 ar
    17    6   38 1
    18    7    8 ar
    19    7   39 1
    20    8    9 ar
    21    8   11 1
    22    9   10 ar
    23    9   40 1
    24   10   41 1
    25   11   12 2
    26   11   13 1
    27   13   18 ar
    28   13   14 ar
    29   14   15 ar
    30   14   42 1
    31   15   16 ar
    32   15   43 1
    33   16   17 ar
    34   16   44 1
    35   17   18 ar
    36   17   19 1
    37   18   45 1
    38   19   20 1
    39   20   21 2
    40   20   22 2
    41   20   23 1
    42   23   27 1
    43   23   24 2
    44   24   25 1
    45   24   46 1
    46   25   26 2
    47   25   47 1
    48   26   27 1
    49   26   28 1
@<TRIPOS>MOLECULE
ZINC10058963
   55    59     0     0     0
SMALL
USER_CHARGES

@<TRIPOS>ATOM
      1 C1         -0.1700    0.9774   -1.0410 C.ar      1 <0>        -0.1249
      2 C2          0.9574    1.7515   -0.8264 C.ar      1 <0>        -0.1233
      3 C3          2.1904    1.1536   -0.6763 C.ar      1 <0>        -0.1055
      4 C4          2.3004   -0.2404   -0.7409 C.ar      1 <0>        -0.0300
      5 C5          1.1553   -1.0157   -0.9577 C.ar      1 <0>        -0.0934
      6 C6         -0.0700   -0.4018   -1.1062 C.ar      1 <0>        -0.1245
      7 C7          3.6106   -0.8861   -0.5825 C.2       1 <0>         0.0937
      8 N1          3.7094   -2.1910   -0.6436 N.2       1 <0>        -0.3158
      9 N2          4.8597   -2.7579   -0.5045 N.2       1 <0>        -0.4342
     10 C8          4.9591   -4.0704   -0.5660 C.2       1 <0>         0.3373
     11 C9          3.8500   -5.0200   -0.7936 C.ar      1 <0>        -0.0827
     12 C10         2.4847   -4.8160   -0.9930 C.ar      1 <0>        -0.0790
     13 C11         1.6459   -5.8959   -1.1859 C.ar      1 <0>        -0.1205
     14 C12         2.1509   -7.1853   -1.1831 C.ar      1 <0>        -0.1189
     15 C13         3.4995   -7.4078   -0.9873 C.ar      1 <0>        -0.0803
     16 C14         4.3633   -6.3302   -0.7907 C.ar      1 <0>        -0.1325
     17 C15         5.8219   -6.2746   -0.5612 C.2       1 <0>         0.4488
     18 C16         6.2005   -4.8590   -0.4261 C.2       1 <0>        -0.4371
     19 C17         7.4528   -4.3705   -0.2104 C.2       1 <0>         0.3812
     20 O1          8.4945   -5.2141   -0.1036 O.3       1 <0>        -0.6044
     21 C18         7.6716   -2.8842   -0.0911 C.3       1 <0>        -0.0483
     22 C19         8.2578   -2.5696    1.2611 C.ar      1 <0>        -0.0511
     23 C20         7.6523   -1.6311    2.0755 C.ar      1 <0>        -0.1109
     24 C21         8.1900   -1.3426    3.3159 C.ar      1 <0>        -0.1311
     25 C22         9.3329   -1.9929    3.7420 C.ar      1 <0>        -0.1316
     26 C23         9.9380   -2.9321    2.9279 C.ar      1 <0>        -0.1293
     27 C24         9.3978   -3.2237    1.6893 C.ar      1 <0>        -0.0995
     28 C25         8.6213   -2.4282   -1.1688 C.ar      1 <0>        -0.0512
     29 C26         9.8454   -3.0523   -1.3206 C.ar      1 <0>        -0.0997
     30 C27        10.7165   -2.6340   -2.3091 C.ar      1 <0>        -0.1292
     31 C28        10.3634   -1.5921   -3.1460 C.ar      1 <0>        -0.1316
     32 C29         9.1389   -0.9686   -2.9947 C.ar      1 <0>        -0.1311
     33 C30         8.2660   -1.3897   -2.0090 C.ar      1 <0>        -0.1109
     34 O2          6.5757   -7.2282   -0.5002 O.2       1 <0>        -0.4665
     35 H1         -1.1336    1.4518   -1.1537 H         1 <0>         0.1170
     36 H2          0.8708    2.8269   -0.7768 H         1 <0>         0.1201
     37 H3          3.0691    1.7590   -0.5097 H         1 <0>         0.1242
     38 H4          1.2316   -2.0918   -1.0093 H         1 <0>         0.1284
     39 H5         -0.9545   -0.9985   -1.2736 H         1 <0>         0.1194
     40 H6          4.4922   -0.2851   -0.4157 H         1 <0>         0.1020
     41 H7          2.0834   -3.8133   -0.9962 H         1 <0>         0.1368
     42 H8          0.5893   -5.7338   -1.3396 H         1 <0>         0.1238
     43 H9          1.4855   -8.0224   -1.3346 H         1 <0>         0.1240
     44 H10         3.8857   -8.4164   -0.9865 H         1 <0>         0.1261
     45 H11         6.7190   -2.3665   -0.2035 H         1 <0>         0.1401
     46 H12         6.7593   -1.1230    1.7426 H         1 <0>         0.1178
     47 H13         7.7172   -0.6088    3.9519 H         1 <0>         0.1143
     48 H14         9.7534   -1.7669    4.7108 H         1 <0>         0.1127
     49 H15        10.8312   -3.4399    3.2606 H         1 <0>         0.1152
     50 H16         9.8684   -3.9602    1.0548 H         1 <0>         0.1429
     51 H17        10.1213   -3.8664   -0.6667 H         1 <0>         0.1432
     52 H18        11.6732   -3.1211   -2.4272 H         1 <0>         0.1152
     53 H19        11.0443   -1.2648   -3.9178 H         1 <0>         0.1127
     54 H20         8.8632   -0.1543   -3.6484 H         1 <0>         0.1143
     55 H21         7.3078   -0.9051   -1.8932 H         1 <0>         0.1178
@<TRIPOS>BOND
     1    1    6 ar
     2    1    2 ar
     3    1   35 1
     4    2    3 ar
     5    2   36 1
     6    3    4 ar
     7    3   37 1
     8    4    5 ar
     9    4    7 1
    10    5    6 ar
    11    5   38 1
    12    6   39 1
    13    7    8 2
    14    7   40 1
    15    8    9 1
    16    9   10 2
    17   10   18 1
    18   10   11 1
    19   11   16 ar
    20   11   12 ar
    21   12   13 ar
    22   12   41 1
    23   13   14 ar
    24   13   42 1
    25   14   15 ar
    26   14   43 1
    27   15   16 ar
    28   15   44 1
    29   16   17 1
    30   17   18 1
    31   17   34 2
    32   18   19 2
    33   19   20 1
    34   19   21 1
    35   21   22 1
    36   21   28 1
    37   21   45 1
    38   22   27 ar
    39   22   23 ar
    40   23   24 ar
    41   23   46 1
    42   24   25 ar
    43   24   47 1
    44   25   26 ar
    45   25   48 1
    46   26   27 ar
    47   26   49 1
    48   27   50 1
    49   28   33 ar
    50   28   29 ar
    51   29   30 ar
    52   29   51 1
    53   30   31 ar
    54   30   52 1
    55   31   32 ar
    56   31   53 1
    57   32   33 ar
    58   32   54 1
    59   33   55 1
@<TRIPOS>MOLECULE
ZINC03977823
   89    93     0     0     0
SMALL
USER_CHARGES
(2S,4aS,6aR,6aS,6bR,8aR,10S,12aS,14bR)-10-(4-hydroxy-4-oxo-butanoyl)oxy-2,4a,6a,6b,9,9,12a-heptamethyl-13-oxo-3,4,5,6,6a,7,8,8a,10,11,12,14b-dodecahydro-1H-picene-2-carboxylic acid
@<TRIPOS>ATOM
      1 C1         -3.6651    2.6661    0.8936 C.3       1 <0>        -0.1374
      2 C2         -3.7772    1.2623    0.2987 C.3       1 <0>        -0.0401
      3 C3         -5.1099    1.0111   -0.3657 C.3       1 <0>        -0.0588
      4 H1         -4.9779    0.0936   -0.9949 H         1 <0>         0.0602
      5 C4         -5.5082    2.1179   -1.3394 C.3       1 <0>        -0.1120
      6 C5         -6.6089    1.5642   -2.2581 C.3       1 <0>        -0.1075
      7 C6         -7.8172    1.1272   -1.4458 C.3       1 <0>        -0.0247
      8 C7         -7.4464    0.2151   -0.2870 C.3       1 <0>        -0.1025
      9 H2         -7.1375   -0.6670   -0.6427 H         1 <0>         0.0877
     10 C8         -6.2765    0.6982    0.5673 C.3       1 <0>        -0.0271
     11 C9         -5.8535   -0.4593    1.4904 C.3       1 <0>        -0.1153
     12 C10        -4.6242   -0.0470    2.2960 C.3       1 <0>        -0.1317
     13 C11        -3.4486    0.2166    1.3642 C.3       1 <0>         0.1014
     14 H3         -3.1697   -0.7189    0.8658 H         1 <0>         0.0784
     15 O1         -2.3092    0.6763    2.1450 O.3       1 <0>        -0.3515
     16 C12        -1.4842   -0.2644    2.6309 C.2       1 <0>         0.4576
     17 O2         -1.7044   -1.4322    2.4128 O.2       1 <0>        -0.5133
     18 C13        -0.2798    0.1363    3.4433 C.3       1 <0>        -0.0914
     19 C14         0.4898   -1.1165    3.8665 C.3       1 <0>        -0.1460
     20 C15         1.6941   -0.7157    4.6789 C.2       1 <0>         0.4631
     21 O3          1.9143    0.4521    4.8971 O.co2     1 <0>        -0.6420
     22 C16        -6.6594    1.8854    1.4423 C.3       1 <0>        -0.1558
     23 C17        -8.6920   -0.0415    0.5293 C.2       1 <0>         0.3996
     24 O4         -8.6897   -0.1082    1.7430 O.2       1 <0>        -0.4561
     25 C18        -9.9427   -0.2569   -0.2118 C.2       1 <0>        -0.2604
     26 C19       -10.0182   -0.0584   -1.5326 C.2       1 <0>         0.0061
     27 C20        -8.8543    0.4314   -2.3384 C.3       1 <0>        -0.0151
     28 C21        -9.2691    1.3469   -3.4807 C.3       1 <0>        -0.1042
     29 C22       -10.5196    0.8410   -4.1977 C.3       1 <0>        -0.1071
     30 C23       -11.6776    0.7154   -3.2125 C.3       1 <0>        -0.0458
     31 C24       -11.3535   -0.3652   -2.1848 C.3       1 <0>        -0.0486
     32 H4        -12.1270   -0.3576   -1.4048 H         1 <0>         0.1079
     33 C25       -11.2987   -1.7417   -2.8369 C.3       1 <0>        -0.0738
     34 C26       -12.6033   -2.0701   -3.5613 C.3       1 <0>        -0.1034
     35 C27       -12.9098   -0.9904   -4.5965 C.3       1 <0>        -0.0872
     36 C28       -12.9750    0.3857   -3.9470 C.3       1 <0>        -0.1019
     37 C29       -12.4364   -3.4144   -4.2869 C.3       1 <0>        -0.1228
     38 C30       -13.7342   -2.1926   -2.5759 C.2       1 <0>         0.4771
     39 O5        -13.5342   -2.0007   -1.3999 O.co2     1 <0>        -0.6355
     40 C31       -11.8829    2.0501   -2.4826 C.3       1 <0>        -0.1465
     41 C32        -8.1729   -0.7952   -2.9631 C.3       1 <0>        -0.1545
     42 C33        -8.5116    2.3890   -0.9042 C.3       1 <0>        -0.1672
     43 C34        -2.6718    1.1408   -0.7808 C.3       1 <0>        -0.1502
     44 H5         -2.6276    2.8651    1.1621 H         1 <0>         0.0630
     45 H6         -3.9974    3.3996    0.1590 H         1 <0>         0.0538
     46 H7         -4.2904    2.7345    1.7838 H         1 <0>         0.0599
     47 H8         -5.8606    3.0007   -0.8239 H         1 <0>         0.0714
     48 H9         -4.6555    2.3915   -1.9666 H         1 <0>         0.0640
     49 H10        -6.9024    2.3498   -2.9605 H         1 <0>         0.0679
     50 H11        -6.1838    0.7341   -2.8215 H         1 <0>         0.0676
     51 H12        -6.6716   -0.6985    2.1662 H         1 <0>         0.0881
     52 H13        -5.6161   -1.3289    0.8777 H         1 <0>         0.0575
     53 H14        -4.3577   -0.8764    2.9689 H         1 <0>         0.0631
     54 H15        -4.8269    0.8211    2.9147 H         1 <0>         0.0780
     55 H16         0.3677    0.7748    2.8424 H         1 <0>         0.1026
     56 H17        -0.6045    0.6802    4.3304 H         1 <0>         0.1033
     57 H18        -0.1578   -1.7550    4.4675 H         1 <0>         0.0726
     58 H19         0.8145   -1.6604    2.9795 H         1 <0>         0.0720
     59 H20        -6.7481    2.7787    0.8241 H         1 <0>         0.0591
     60 H21        -7.6134    1.6847    1.9298 H         1 <0>         0.0679
     61 H22        -5.8905    2.0420    2.1989 H         1 <0>         0.0627
     62 H23       -10.8217   -0.5985    0.3187 H         1 <0>         0.1335
     63 H24        -9.4086    2.3773   -3.1819 H         1 <0>         0.0736
     64 H25        -8.4472    1.3523   -4.2242 H         1 <0>         0.0568
     65 H26       -10.7936    1.5557   -4.9809 H         1 <0>         0.0575
     66 H27       -10.3197   -0.1225   -4.6638 H         1 <0>         0.0676
     67 H28       -11.1130   -2.5002   -2.0719 H         1 <0>         0.0574
     68 H29       -10.4878   -1.7794   -3.5675 H         1 <0>         0.0498
     69 H30       -13.8703   -1.2121   -5.0723 H         1 <0>         0.0629
     70 H31       -12.1347   -0.9958   -5.3670 H         1 <0>         0.0466
     71 H32       -13.8084    0.4352   -3.2453 H         1 <0>         0.0641
     72 H33       -13.1402    1.1420   -4.7222 H         1 <0>         0.0498
     73 H34       -11.6161   -3.3425   -5.0010 H         1 <0>         0.0387
     74 H35       -12.2170   -4.1955   -3.5589 H         1 <0>         0.0439
     75 H36       -13.3579   -3.6589   -4.8154 H         1 <0>         0.0586
     76 H37       -12.1097    2.8304   -3.2090 H         1 <0>         0.0483
     77 H38       -12.7108    1.9562   -1.7798 H         1 <0>         0.0540
     78 H39       -10.9740    2.3113   -1.9405 H         1 <0>         0.0583
     79 H40        -7.9066   -1.5024   -2.1775 H         1 <0>         0.0558
     80 H41        -8.8567   -1.2726   -3.6650 H         1 <0>         0.0676
     81 H42        -7.2719   -0.4813   -3.4902 H         1 <0>         0.0643
     82 H43        -8.9520    2.9450   -1.7319 H         1 <0>         0.0644
     83 H44        -9.2946    2.1003   -0.2031 H         1 <0>         0.0585
     84 H45        -7.7801    3.0157   -0.3941 H         1 <0>         0.0662
     85 H46        -2.6835    0.1352   -1.2013 H         1 <0>         0.0509
     86 H47        -2.8553    1.8676   -1.5721 H         1 <0>         0.0588
     87 H48        -1.6992    1.3341   -0.3283 H         1 <0>         0.0596
     88 O6          2.5222   -1.6561    5.1602 O.co2     1 <0>        -0.7713
     89 O7        -14.9650   -2.5149   -3.0035 O.co2     1 <0>        -0.7727
@<TRIPOS>BOND
     1    1    2 1
     2    1   44 1
     3    1   45 1
     4    1   46 1
     5    2   13 1
     6    2    3 1
     7    2   43 1
     8    3    4 1
     9    3   10 1
    10    3    5 1
    11    5    6 1
    12    5   47 1
    13    5   48 1
    14    6    7 1
    15    6   49 1
    16    6   50 1
    17    7   27 1
    18    7    8 1
    19    7   42 1
    20    8    9 1
    21    8   10 1
    22    8   23 1
    23   10   11 1
    24   10   22 1
    25   11   12 1
    26   11   51 1
    27   11   52 1
    28   12   13 1
    29   12   53 1
    30   12   54 1
    31   13   14 1
    32   13   15 1
    33   15   16 1
    34   16   17 2
    35   16   18 1
    36   18   19 1
    37   18   55 1
    38   18   56 1
    39   19   20 1
    40   19   57 1
    41   19   58 1
    42   20   21 2
    43   20   88 1
    44   22   59 1
    45   22   60 1
    46   22   61 1
    47   23   24 2
    48   23   25 1
    49   25   26 2
    50   25   62 1
    51   26   31 1
    52   26   27 1
    53   27   28 1
    54   27   41 1
    55   28   29 1
    56   28   63 1
    57   28   64 1
    58   29   30 1
    59   29   65 1
    60   29   66 1
    61   30   36 1
    62   30   31 1
    63   30   40 1
    64   31   32 1
    65   31   33 1
    66   33   34 1
    67   33   67 1
    68   33   68 1
    69   34   35 1
    70   34   37 1
    71   34   38 1
    72   35   36 1
    73   35   69 1
    74   35   70 1
    75   36   71 1
    76   36   72 1
    77   37   73 1
    78   37   74 1
    79   37   75 1
    80   38   39 2
    81   38   89 1
    82   40   76 1
    83   40   77 1
    84   40   78 1
    85   41   79 1
    86   41   80 1
    87   41   81 1
    88   42   82 1
    89   42   83 1
    90   42   84 1
    91   43   85 1
    92   43   86 1
    93   43   87 1
@<TRIPOS>MOLECULE
ZINC33594964
   60    64     0     0     0
SMALL
USER_CHARGES
(4E,5R)-5-(4-allyloxyphenyl)-4-[hydroxy-(4-methoxyphenyl)methylene]-1-(6-methyl-1,3-benzothiazol-2-yl)pyrrolidine-2,3-dione
@<TRIPOS>ATOM
      1 C1         -6.1954    5.9316    1.6953 C.3       1 <0>        -0.1095
      2 C2         -5.1950    4.8345    1.4371 C.ar      1 <0>        -0.0855
      3 C3         -5.6216    3.5793    1.0273 C.ar      1 <0>        -0.1066
      4 C4         -4.7332    2.5646    0.7857 C.ar      1 <0>        -0.0702
      5 C5         -3.3429    2.7675    0.9475 C.ar      1 <0>         0.1133
      6 C6         -2.9452    4.0583    1.3655 C.ar      1 <0>        -0.1702
      7 C7         -3.8427    5.0686    1.6056 C.ar      1 <0>        -0.0583
      8 S1         -1.1778    3.8990    1.4544 S.3       1 <0>         0.0380
      9 C8         -1.0802    2.1907    0.9384 C.2       1 <0>         0.4088
     10 N1         -2.3426    1.8816    0.7533 N.2       1 <0>        -0.5388
     11 N2          0.0407    1.3946    0.7800 N.am      1 <0>        -0.4972
     12 C9          0.0355   -0.0087    0.3562 C.3       1 <0>         0.2740
     13 H1         -0.4478   -0.0965   -0.6280 H         1 <0>         0.0874
     14 C10         1.4790   -0.4545    0.3201 C.2       1 <0>        -0.4907
     15 C11         1.9528   -1.7053   -0.0251 C.2       1 <0>         0.4109
     16 C12         3.4004   -1.9344   -0.1513 C.ar      1 <0>        -0.1127
     17 C13         4.1790   -1.0860   -0.9478 C.ar      1 <0>        -0.0145
     18 C14         5.5336   -1.3017   -1.0587 C.ar      1 <0>        -0.2140
     19 C15         6.1276   -2.3666   -0.3898 C.ar      1 <0>         0.1230
     20 C16         5.3578   -3.2153    0.3984 C.ar      1 <0>        -0.1650
     21 C17         4.0033   -3.0050    0.5201 C.ar      1 <0>        -0.0470
     22 O1          7.4629   -2.5779   -0.5062 O.3       1 <0>        -0.3218
     23 C18         8.1941   -1.6688   -1.3314 C.3       1 <0>         0.0258
     24 O2          1.0873   -2.7177   -0.2466 O.2       1 <0>        -0.6146
     25 C19         2.2408    0.6580    0.7078 C.2       1 <0>         0.3791
     26 O3          3.4547    0.6951    0.8012 O.3       1 <0>        -0.4842
     27 C20         1.3101    1.7841    0.9850 C.2       1 <0>         0.4783
     28 O4          1.6481    2.8940    1.3425 O.2       1 <0>        -0.4846
     29 C21        -0.7380   -0.8434    1.3441 C.ar      1 <0>        -0.0877
     30 C22        -0.6337   -0.5835    2.6981 C.ar      1 <0>        -0.0666
     31 C23        -1.3460   -1.3436    3.6054 C.ar      1 <0>        -0.2116
     32 C24        -2.1574   -2.3760    3.1578 C.ar      1 <0>         0.1179
     33 C25        -2.2561   -2.6383    1.7991 C.ar      1 <0>        -0.1510
     34 C26        -1.5464   -1.8714    0.8954 C.ar      1 <0>        -0.0276
     35 O5         -2.8542   -3.1292    4.0488 O.3       1 <0>        -0.3152
     36 C27        -2.7046   -2.8023    5.4318 C.3       1 <0>         0.0855
     37 C28        -3.5454   -3.7370    6.2628 C.2       1 <0>        -0.1533
     38 C29        -3.0454   -4.2811    7.3445 C.2       1 <0>        -0.1810
     39 H2         -7.2111    5.5532    1.5077 H         1 <0>         0.0673
     40 H3         -5.9906    6.7797    1.0256 H         1 <0>         0.0699
     41 H4         -6.1148    6.2625    2.7413 H         1 <0>         0.0698
     42 H5         -6.6782    3.3979    0.8961 H         1 <0>         0.1289
     43 H6         -5.0986    1.5992    0.4678 H         1 <0>         0.1311
     44 H7         -3.4949    6.0402    1.9238 H         1 <0>         0.1280
     45 H8          3.7179   -0.2615   -1.4712 H         1 <0>         0.1212
     46 H9          6.1357   -0.6455   -1.6696 H         1 <0>         0.1227
     47 H10         5.8238   -4.0406    0.9161 H         1 <0>         0.1249
     48 H11         3.4064   -3.6645    1.1327 H         1 <0>         0.1280
     49 H12         9.2567   -1.9530   -1.3378 H         1 <0>         0.0951
     50 H13         8.0898   -0.6483   -0.9344 H         1 <0>         0.0556
     51 H14         7.7985   -1.7054   -2.3572 H         1 <0>         0.0537
     52 H15         0.0022    0.2170    3.0465 H         1 <0>         0.1063
     53 H16        -1.2679   -1.1371    4.6627 H         1 <0>         0.1172
     54 H17        -2.8873   -3.4412    1.4481 H         1 <0>         0.1242
     55 H18        -1.6227   -2.0753   -0.1624 H         1 <0>         0.1289
     56 H19        -1.6481   -2.9048    5.7205 H         1 <0>         0.0658
     57 H20        -3.0321   -1.7660    5.6011 H         1 <0>         0.0688
     58 H21        -4.5789   -3.9622    5.9611 H         1 <0>         0.1205
     59 H22        -3.6592   -4.9633    7.9510 H         1 <0>         0.1081
     60 H23        -2.0119   -4.0558    7.6462 H         1 <0>         0.1013
@<TRIPOS>BOND
     1    1    2 1
     2    1   39 1
     3    1   40 1
     4    1   41 1
     5    2    7 ar
     6    2    3 ar
     7    3    4 ar
     8    3   42 1
     9    4    5 ar
    10    4   43 1
    11    5   10 1
    12    5    6 ar
    13    6    7 ar
    14    6    8 1
    15    7   44 1
    16    8    9 1
    17    9   10 2
    18    9   11 1
    19   11   27 am
    20   11   12 1
    21   12   14 1
    22   12   29 1
    23   12   13 1
    24   14   25 2
    25   14   15 1
    26   15   24 2
    27   15   16 1
    28   16   21 ar
    29   16   17 ar
    30   17   18 ar
    31   17   45 1
    32   18   19 ar
    33   18   46 1
    34   19   20 ar
    35   19   22 1
    36   20   21 ar
    37   20   47 1
    38   21   48 1
    39   22   23 1
    40   23   49 1
    41   23   50 1
    42   23   51 1
    43   25   27 1
    44   25   26 1
    45   27   28 2
    46   29   34 ar
    47   29   30 ar
    48   30   31 ar
    49   30   52 1
    50   31   32 ar
    51   31   53 1
    52   32   33 ar
    53   32   35 1
    54   33   34 ar
    55   33   54 1
    56   34   55 1
    57   35   36 1
    58   36   37 1
    59   36   56 1
    60   36   57 1
    61   37   38 2
    62   37   58 1
    63   38   59 1
    64   38   60 1
@<TRIPOS>MOLECULE
ZINC36058592
   65    68     0     0     0
SMALL
USER_CHARGES

@<TRIPOS>ATOM
      1 C1         -0.1600    0.2369    0.2733 C.3       1 <0>        -0.1436
      2 C2          0.1212   -1.2418    0.5474 C.3       1 <0>        -0.0768
      3 C3          0.8682   -1.3782    1.8491 C.2       1 <0>         0.2574
      4 C4          0.1680   -1.5618    3.0261 C.2       1 <0>        -0.3730
      5 C5          0.9627   -1.6938    4.3061 C.3       1 <0>         0.2757
      6 H1          0.6352   -0.9081    4.9869 H         1 <0>         0.0763
      7 N1          2.4436   -1.6149    4.1944 N.pl3     1 <0>        -0.5215
      8 C6          3.3607   -1.7092    5.2221 C.2       1 <0>         0.2260
      9 C7          4.6705   -1.6113    4.9045 C.2       1 <0>        -0.2979
     10 S1          4.6056   -1.3840    3.1385 S.3       1 <0>         0.1239
     11 C8          2.9402   -1.4293    2.9345 C.2       1 <0>         0.3247
     12 N2          2.1902   -1.3268    1.8565 N.2       1 <0>        -0.5898
     13 C9          2.9277   -1.9085    6.6126 C.2       1 <0>        -0.4482
     14 C10         3.8404   -2.1401    7.5756 C.2       1 <0>         0.5026
     15 O1          5.1628   -2.0739    7.2859 O.3       1 <0>        -0.6950
     16 N3          3.4278   -2.4458    8.8615 N.pl3     1 <0>        -0.6409
     17 C11         2.1818   -3.1899    9.0909 C.3       1 <0>         0.1334
     18 C12         2.4891   -4.4078    9.9678 C.3       1 <0>        -0.1331
     19 C13         3.1902   -3.9462   11.2474 C.3       1 <0>        -0.0973
     20 C14         4.5120   -3.2633   10.8890 C.3       1 <0>        -0.0965
     21 H2          5.1430   -3.9593   10.3363 H         1 <0>         0.1122
     22 C15         4.2308   -2.0376   10.0223 C.3       1 <0>         0.1495
     23 C16         5.2173   -2.8386   12.1513 C.2       1 <0>         0.4727
     24 O2          4.7146   -3.0593   13.2276 O.2       1 <0>        -0.5140
     25 O3          6.4038   -2.2152   12.0799 O.3       1 <0>        -0.3463
     26 C17         7.0155   -1.8410   13.3159 C.3       1 <0>         0.0590
     27 C18         8.3503   -1.1479   13.0352 C.3       1 <0>        -0.1523
     28 C19         0.6155   -3.0195    4.9331 C.ar      1 <0>        -0.1113
     29 C20         1.3836   -4.1357    4.6600 C.ar      1 <0>        -0.0537
     30 C21         1.0654   -5.3517    5.2349 C.ar      1 <0>        -0.1247
     31 C22        -0.0214   -5.4531    6.0837 C.ar      1 <0>        -0.0935
     32 C23        -0.7904   -4.3385    6.3586 C.ar      1 <0>        -0.1550
     33 C24        -0.4694   -3.1185    5.7873 C.ar      1 <0>         0.1046
     34 F1         -1.2178   -2.0270    6.0589 F         1 <0>        -0.1382
     35 C25        -1.2308   -1.6231    3.0335 C.2       1 <0>         0.5634
     36 O4         -1.8823   -0.6389    3.3372 O.2       1 <0>        -0.5066
     37 O5         -1.8584   -2.7737    2.7040 O.3       1 <0>        -0.3526
     38 C26        -3.2871   -2.7646    2.7329 C.3       1 <0>         0.0321
     39 H3          0.7827    0.7804    0.2099 H         1 <0>         0.0618
     40 H4         -0.7003    0.3356   -0.6682 H         1 <0>         0.0591
     41 H5         -0.7628    0.6483    1.0830 H         1 <0>         0.0575
     42 H6         -0.8215   -1.7853    0.6108 H         1 <0>         0.0737
     43 H7          0.7240   -1.6532   -0.2622 H         1 <0>         0.0866
     44 H8          5.5329   -1.6580    5.5529 H         1 <0>         0.2372
     45 H9          1.8776   -1.8693    6.8621 H         1 <0>         0.0843
     46 H10         1.4607   -2.5479    9.5969 H         1 <0>         0.0447
     47 H11         1.7728   -3.5208    8.1363 H         1 <0>         0.0802
     48 H12         1.5591   -4.9148   10.2251 H         1 <0>         0.0712
     49 H13         3.1391   -5.0931    9.4238 H         1 <0>         0.0669
     50 H14         2.5498   -3.2419   11.7785 H         1 <0>         0.0684
     51 H15         3.3879   -4.8084   11.8844 H         1 <0>         0.0666
     52 H16         5.1732   -1.6086    9.6820 H         1 <0>         0.0962
     53 H17         3.6805   -1.2996   10.6059 H         1 <0>         0.0458
     54 H18         6.3581   -1.1586   13.8547 H         1 <0>         0.0649
     55 H19         7.1885   -2.7317   13.9200 H         1 <0>         0.0639
     56 H20         8.8169   -0.8625   13.9780 H         1 <0>         0.0760
     57 H21         9.0077   -1.8303   12.4964 H         1 <0>         0.0670
     58 H22         8.1773   -0.2573   12.4311 H         1 <0>         0.0685
     59 H23         2.2324   -4.0578    3.9968 H         1 <0>         0.1183
     60 H24         1.6659   -6.2235    5.0207 H         1 <0>         0.1251
     61 H25        -0.2695   -6.4039    6.5319 H         1 <0>         0.1281
     62 H26        -1.6394   -4.4179    7.0214 H         1 <0>         0.1306
     63 H27        -3.6286   -2.5225    3.7393 H         1 <0>         0.0555
     64 H28        -3.6599   -2.0167    2.0330 H         1 <0>         0.0554
     65 H29        -3.6625   -3.7475    2.4484 H         1 <0>         0.0945
@<TRIPOS>BOND
     1    1    2 1
     2    1   39 1
     3    1   40 1
     4    1   41 1
     5    2    3 1
     6    2   42 1
     7    2   43 1
     8    3   12 1
     9    3    4 2
    10    4    5 1
    11    4   35 1
    12    5    6 1
    13    5    7 1
    14    5   28 1
    15    7   11 1
    16    7    8 1
    17    8    9 2
    18    8   13 1
    19    9   10 1
    20    9   44 1
    21   10   11 1
    22   11   12 2
    23   13   14 2
    24   13   45 1
    25   14   15 1
    26   14   16 1
    27   16   22 1
    28   16   17 1
    29   17   18 1
    30   17   46 1
    31   17   47 1
    32   18   19 1
    33   18   48 1
    34   18   49 1
    35   19   20 1
    36   19   50 1
    37   19   51 1
    38   20   21 1
    39   20   22 1
    40   20   23 1
    41   22   52 1
    42   22   53 1
    43   23   24 2
    44   23   25 1
    45   25   26 1
    46   26   27 1
    47   26   54 1
    48   26   55 1
    49   27   56 1
    50   27   57 1
    51   27   58 1
    52   28   33 ar
    53   28   29 ar
    54   29   30 ar
    55   29   59 1
    56   30   31 ar
    57   30   60 1
    58   31   32 ar
    59   31   61 1
    60   32   33 ar
    61   32   62 1
    62   33   34 1
    63   35   36 2
    64   35   37 1
    65   37   38 1
    66   38   63 1
    67   38   64 1
    68   38   65 1
@<TRIPOS>MOLECULE
ZINC55406233
   55    58     0     0     0
SMALL
USER_CHARGES

@<TRIPOS>ATOM
      1 C1         -1.3152   -0.4589    6.4214 C.3       1 <0>        -0.1152
      2 C2         -0.8350   -1.6661    5.6577 C.ar      1 <0>        -0.0932
      3 C3         -0.2145   -2.7043    6.3300 C.ar      1 <0>        -0.1094
      4 C4          0.2278   -3.8119    5.6374 C.ar      1 <0>        -0.0975
      5 C5          0.0478   -3.8844    4.2539 C.ar      1 <0>         0.0936
      6 C6         -0.5799   -2.8327    3.5819 C.ar      1 <0>        -0.1248
      7 C7         -1.0219   -1.7335    4.2882 C.ar      1 <0>        -0.1128
      8 N1          0.4843   -4.9795    3.5606 N.2       1 <0>        -0.4883
      9 C8         -0.2898   -5.5353    2.6531 C.2       1 <0>         0.4188
     10 C9          0.1776   -6.7079    1.9108 C.2       1 <0>        -0.1019
     11 C10         1.4816   -7.1686    2.0847 C.2       1 <0>         0.2436
     12 N2          2.0563   -8.3055    1.5675 N.am      1 <0>        -0.5040
     13 C11         3.3131   -8.6396    1.8056 C.2       1 <0>         0.5231
     14 O1          3.8115   -9.6445    1.3451 O.2       1 <0>        -0.4480
     15 C12         4.0942   -7.6834    2.6932 C.3       1 <0>        -0.1381
     16 H1          4.9394   -7.2494    2.1590 H         1 <0>         0.1624
     17 S1          2.8010   -6.4163    3.0256 S.3       1 <0>         0.0772
     18 C13         4.5509   -8.3703    3.9818 C.3       1 <0>        -0.0515
     19 C14         5.4218   -7.4278    4.7719 C.ar      1 <0>        -0.0944
     20 C15         6.7885   -7.4108    4.5638 C.ar      1 <0>        -0.0587
     21 C16         7.5872   -6.5464    5.2885 C.ar      1 <0>        -0.1135
     22 C17         7.0194   -5.6985    6.2213 C.ar      1 <0>        -0.0513
     23 C18         5.6530   -5.7148    6.4287 C.ar      1 <0>        -0.0440
     24 C19         4.8536   -6.5765    5.7007 C.ar      1 <0>        -0.0438
     25 N3          5.0452   -4.8074    7.4277 N.pl3     1 <0>         0.0311
     26 O2          5.7439   -4.0518    8.0622 O.2       1 <0>        -0.1591
     27 O3          3.8500   -4.8217    7.6092 O.3       1 <0>        -0.1454
     28 C20         1.2791   -9.1436    0.7564 C.ar      1 <0>         0.0832
     29 C21         0.5708  -10.1959    1.3209 C.ar      1 <0>        -0.0803
     30 C22        -0.1944  -11.0204    0.5195 C.ar      1 <0>        -0.0965
     31 C23        -0.2551  -10.7985   -0.8452 C.ar      1 <0>        -0.0038
     32 C24         0.4503   -9.7506   -1.4102 C.ar      1 <0>        -0.0915
     33 C25         1.2116   -8.9194   -0.6121 C.ar      1 <0>        -0.0836
     34 Cl1        -1.2174  -11.8369   -1.8499 Cl        1 <0>        -0.0514
     35 C26        -0.7050   -7.3812    1.0062 C.1       1 <0>         0.2398
     36 N4         -1.4051   -7.9154    0.2886 N.1       1 <0>        -0.3761
     37 O4         -1.5175   -5.0233    2.4059 O.3       1 <0>        -0.4841
     38 H2         -2.3408   -0.6225    6.7521 H         1 <0>         0.0692
     39 H3         -0.6748   -0.2996    7.2890 H         1 <0>         0.0670
     40 H4         -1.2771    0.4184    5.7757 H         1 <0>         0.0645
     41 H5         -0.0760   -2.6469    7.3995 H         1 <0>         0.1265
     42 H6          0.7126   -4.6212    6.1633 H         1 <0>         0.1304
     43 H7         -0.7225   -2.8820    2.5125 H         1 <0>         0.1221
     44 H8         -1.5112   -0.9216    3.7706 H         1 <0>         0.1198
     45 H9          3.6793   -8.6442    4.5762 H         1 <0>         0.0995
     46 H10         5.1181   -9.2675    3.7339 H         1 <0>         0.1119
     47 H11         7.2320   -8.0732    3.8351 H         1 <0>         0.1465
     48 H12         8.6549   -6.5336    5.1264 H         1 <0>         0.1510
     49 H13         7.6436   -5.0235    6.7880 H         1 <0>         0.1554
     50 H14         3.7854   -6.5866    5.8602 H         1 <0>         0.1597
     51 H15         0.6184  -10.3699    2.3857 H         1 <0>         0.1387
     52 H16        -0.7455  -11.8391    0.9581 H         1 <0>         0.1454
     53 H17         0.4016   -9.5797   -2.4755 H         1 <0>         0.1447
     54 H18         1.7579   -8.0985   -1.0529 H         1 <0>         0.1370
     55 H19        -2.0415   -5.5424    1.7804 H         1 <0>         0.3999
@<TRIPOS>BOND
     1    1    2 1
     2    1   38 1
     3    1   39 1
     4    1   40 1
     5    2    7 ar
     6    2    3 ar
     7    3    4 ar
     8    3   41 1
     9    4    5 ar
    10    4   42 1
    11    5    6 ar
    12    5    8 1
    13    6    7 ar
    14    6   43 1
    15    7   44 1
    16    8    9 2
    17    9   10 1
    18    9   37 1
    19   10   11 2
    20   10   35 1
    21   11   17 1
    22   11   12 1
    23   12   13 am
    24   12   28 1
    25   13   14 2
    26   13   15 1
    27   15   16 1
    28   15   17 1
    29   15   18 1
    30   18   19 1
    31   18   45 1
    32   18   46 1
    33   19   24 ar
    34   19   20 ar
    35   20   21 ar
    36   20   47 1
    37   21   22 ar
    38   21   48 1
    39   22   23 ar
    40   22   49 1
    41   23   24 ar
    42   23   25 1
    43   24   50 1
    44   25   26 2
    45   25   27 1
    46   28   33 ar
    47   28   29 ar
    48   29   30 ar
    49   29   51 1
    50   30   31 ar
    51   30   52 1
    52   31   32 ar
    53   31   34 1
    54   32   33 ar
    55   32   53 1
    56   33   54 1
    57   35   36 3
    58   37   55 1
@<TRIPOS>MOLECULE
ZINC04439337
   60    63     0     0     0
SMALL
USER_CHARGES

@<TRIPOS>ATOM
      1 C1          2.0159    0.9030   -2.5714 C.3       1 <0>        -0.1349
      2 C2          1.8631   -0.5336   -2.0678 C.3       1 <0>        -0.0488
      3 C3          2.4076   -0.6373   -0.6400 C.3       1 <0>        -0.1394
      4 C4          2.1869   -2.0349   -0.1238 C.2       1 <0>         0.3914
      5 O1          2.9595   -2.5029    0.7006 O.3       1 <0>        -0.5536
      6 C5          1.1260   -2.7923   -0.5679 C.2       1 <0>        -0.5014
      7 C6          0.2317   -2.3082   -1.4964 C.2       1 <0>         0.3667
      8 O2         -0.6962   -3.0139   -1.8658 O.2       1 <0>        -0.5947
      9 C7          0.3812   -0.9204   -2.0621 C.3       1 <0>        -0.1409
     10 C8          0.9395   -4.1856   -0.0247 C.3       1 <0>         0.1895
     11 H1          0.6731   -4.8601   -0.8384 H         1 <0>         0.0618
     12 C9          2.2222   -4.6514    0.6146 C.2       1 <0>         0.2063
     13 C10         3.2187   -5.3074   -0.0114 C.2       1 <0>        -0.3181
     14 C11         4.2205   -5.5504    0.9496 C.2       1 <0>        -0.1558
     15 C12         3.7753   -5.0237    2.1212 C.2       1 <0>        -0.0748
     16 O3          2.5643   -4.4766    1.9015 O.3       1 <0>        -0.1089
     17 C13         4.4974   -5.0425    3.4105 C.ar      1 <0>         0.0678
     18 C14         5.7582   -5.6352    3.4990 C.ar      1 <0>        -0.1270
     19 C15         6.4271   -5.6497    4.7053 C.ar      1 <0>        -0.0849
     20 C16         5.8504   -5.0784    5.8268 C.ar      1 <0>        -0.1212
     21 C17         4.6003   -4.4891    5.7455 C.ar      1 <0>        -0.0824
     22 C18         3.9240   -4.4627    4.5435 C.ar      1 <0>        -0.1102
     23 Br1         6.7739   -5.1037    7.4768 Br        1 <0>        -0.0831
     24 C19        -0.1616   -4.1803    1.0042 C.2       1 <0>        -0.5122
     25 C20        -0.0905   -3.2983    2.0593 C.2       1 <0>         0.3779
     26 C21        -1.1710   -3.2596    3.1078 C.3       1 <0>        -0.1460
     27 C22        -1.7989   -4.6505    3.2386 C.3       1 <0>        -0.0472
     28 C23        -2.3358   -5.0822    1.8708 C.3       1 <0>        -0.1414
     29 C24        -1.2168   -5.0537    0.8631 C.2       1 <0>         0.3709
     30 O4         -1.2434   -5.8191   -0.0904 O.3       1 <0>        -0.6098
     31 C25        -0.7400   -5.6483    3.7117 C.3       1 <0>        -0.1344
     32 C26        -2.9477   -4.6013    4.2479 C.3       1 <0>        -0.1348
     33 O5          0.8626   -2.5368    2.1464 O.2       1 <0>        -0.5456
     34 C27         2.6371   -1.4831   -2.9844 C.3       1 <0>        -0.1355
     35 H2          1.4675    1.5785   -1.9149 H         1 <0>         0.0460
     36 H3          3.0710    1.1766   -2.5748 H         1 <0>         0.0440
     37 H4          1.6180    0.9775   -3.5835 H         1 <0>         0.0440
     38 H5          3.4744   -0.4137   -0.6403 H         1 <0>         0.0488
     39 H6         -0.1768   -0.2143   -1.4471 H         1 <0>         0.0567
     40 H7         -0.0042   -0.8996   -3.0815 H         1 <0>         0.0507
     41 H8          3.2448   -5.5933   -1.0525 H         1 <0>         0.1209
     42 H9          5.1602   -6.0573    0.7869 H         1 <0>         0.1181
     43 H10         6.2087   -6.0818    2.6250 H         1 <0>         0.1287
     44 H11         7.4026   -6.1079    4.7750 H         1 <0>         0.1244
     45 H12         4.1556   -4.0451    6.6238 H         1 <0>         0.1251
     46 H13         2.9509   -3.9984    4.4802 H         1 <0>         0.1395
     47 H14        -0.7397   -2.9637    4.0641 H         1 <0>         0.0503
     48 H15        -2.7393   -6.0924    1.9406 H         1 <0>         0.0505
     49 H16        -3.1224   -4.3966    1.5557 H         1 <0>         0.0575
     50 H17        -0.3512   -5.3337    4.6802 H         1 <0>         0.0381
     51 H18        -1.1884   -6.6375    3.8042 H         1 <0>         0.0363
     52 H19         0.0741   -5.6848    2.9878 H         1 <0>         0.0763
     53 H20        -3.7025   -3.8937    3.9051 H         1 <0>         0.0456
     54 H21        -3.3933   -5.5919    4.3397 H         1 <0>         0.0438
     55 H22        -2.5656   -4.2835    5.2180 H         1 <0>         0.0442
     56 H23        -1.9365   -2.5409    2.8152 H         1 <0>         0.0548
     57 H24         3.6921   -1.2091   -2.9839 H         1 <0>         0.0379
     58 H25         2.5272   -2.5059   -2.6242 H         1 <0>         0.0753
     59 H26         2.2434   -1.4106   -3.9983 H         1 <0>         0.0382
     60 H27         1.8864    0.0739    0.0008 H         1 <0>         0.0585
@<TRIPOS>BOND
     1    1    2 1
     2    1   35 1
     3    1   36 1
     4    1   37 1
     5    2    9 1
     6    2   34 1
     7    2    3 1
     8    3    4 1
     9    3   38 1
    10    3   60 1
    11    4    6 2
    12    4    5 1
    13    6   10 1
    14    6    7 1
    15    7    8 2
    16    7    9 1
    17    9   39 1
    18    9   40 1
    19   10   11 1
    20   10   12 1
    21   10   24 1
    22   12   16 1
    23   12   13 2
    24   13   14 1
    25   13   41 1
    26   14   15 2
    27   14   42 1
    28   15   16 1
    29   15   17 1
    30   17   22 ar
    31   17   18 ar
    32   18   19 ar
    33   18   43 1
    34   19   20 ar
    35   19   44 1
    36   20   21 ar
    37   20   23 1
    38   21   22 ar
    39   21   45 1
    40   22   46 1
    41   24   29 2
    42   24   25 1
    43   25   26 1
    44   25   33 2
    45   26   27 1
    46   26   47 1
    47   26   56 1
    48   27   28 1
    49   27   31 1
    50   27   32 1
    51   28   29 1
    52   28   48 1
    53   28   49 1
    54   29   30 1
    55   31   50 1
    56   31   51 1
    57   31   52 1
    58   32   53 1
    59   32   54 1
    60   32   55 1
    61   34   57 1
    62   34   58 1
    63   34   59 1
@<TRIPOS>MOLECULE
ZINC05602310
   55    58     0     0     0
SMALL
USER_CHARGES
N-benzhydryl-3,3-diphenyl-propanamide
@<TRIPOS>ATOM
      1 C1         -0.9788    4.0843    0.7575 C.ar      1 <0>        -0.1231
      2 C2          0.2710    3.7522    0.2688 C.ar      1 <0>        -0.1185
      3 C3          0.5885    2.4292    0.0246 C.ar      1 <0>        -0.0909
      4 C4         -0.3439    1.4382    0.2687 C.ar      1 <0>        -0.0579
      5 C5         -1.5956    1.7708    0.7519 C.ar      1 <0>        -0.1206
      6 C6         -1.9113    3.0934    1.0012 C.ar      1 <0>        -0.1197
      7 C7          0.0021   -0.0041    0.0020 C.3       1 <0>         0.0085
      8 C8         -0.3027   -0.8402    1.2466 C.3       1 <0>        -0.1332
      9 C9          0.6040   -0.4142    2.3724 C.2       1 <0>         0.5167
     10 O1          1.4143    0.4709    2.1966 O.2       1 <0>        -0.5181
     11 N1          0.5146   -1.0169    3.5745 N.am      1 <0>        -0.7268
     12 C10         1.3961   -0.6028    4.6689 C.3       1 <0>         0.2311
     13 C11         0.7928    0.5816    5.3792 C.ar      1 <0>        -0.0877
     14 C12        -0.5701    0.6318    5.6044 C.ar      1 <0>        -0.1019
     15 C13        -1.1228    1.7159    6.2601 C.ar      1 <0>        -0.1201
     16 C14        -0.3139    2.7545    6.6818 C.ar      1 <0>        -0.1178
     17 C15         1.0483    2.7070    6.4515 C.ar      1 <0>        -0.1174
     18 C16         1.6017    1.6204    5.8004 C.ar      1 <0>        -0.1013
     19 C17         1.5587   -1.7424    5.6415 C.ar      1 <0>        -0.0882
     20 C18         0.4718   -2.5305    5.9708 C.ar      1 <0>        -0.1115
     21 C19         0.6221   -3.5788    6.8593 C.ar      1 <0>        -0.1150
     22 C20         1.8570   -3.8328    7.4261 C.ar      1 <0>        -0.1164
     23 C21         2.9427   -3.0411    7.1012 C.ar      1 <0>        -0.1142
     24 C22         2.7936   -1.9961    6.2087 C.ar      1 <0>        -0.1045
     25 C23        -0.8171   -0.5112   -1.1568 C.ar      1 <0>        -0.0745
     26 C24        -0.2017   -0.8197   -2.3556 C.ar      1 <0>        -0.1118
     27 C25        -0.9524   -1.2895   -3.4170 C.ar      1 <0>        -0.1169
     28 C26        -2.3199   -1.4412   -3.2829 C.ar      1 <0>        -0.1217
     29 C27        -2.9360   -1.1273   -2.0859 C.ar      1 <0>        -0.1176
     30 C28        -2.1846   -0.6625   -1.0228 C.ar      1 <0>        -0.1145
     31 H1         -1.2267    5.1179    0.9486 H         1 <0>         0.1176
     32 H2          0.9994    4.5265    0.0781 H         1 <0>         0.1188
     33 H3          1.5648    2.1698   -0.3572 H         1 <0>         0.1182
     34 H4         -2.3256    0.9970    0.9384 H         1 <0>         0.1157
     35 H5         -2.8878    3.3528    1.3826 H         1 <0>         0.1175
     36 H6          1.0619   -0.0848   -0.2393 H         1 <0>         0.0948
     37 H7         -1.3416   -0.6895    1.5400 H         1 <0>         0.0963
     38 H8         -0.1369   -1.8945    1.0256 H         1 <0>         0.0999
     39 H9         -0.1335   -1.7248    3.7151 H         1 <0>         0.3991
     40 H10         2.3706   -0.3271    4.2660 H         1 <0>         0.1039
     41 H11        -1.2026   -0.1778    5.2713 H         1 <0>         0.1145
     42 H12        -2.1871    1.7532    6.4397 H         1 <0>         0.1205
     43 H13        -0.7462    3.6033    7.1908 H         1 <0>         0.1209
     44 H14         1.6802    3.5186    6.7806 H         1 <0>         0.1223
     45 H15         2.6660    1.5833    5.6205 H         1 <0>         0.1207
     46 H16        -0.4939   -2.3295    5.5311 H         1 <0>         0.1186
     47 H17        -0.2262   -4.1970    7.1135 H         1 <0>         0.1244
     48 H18         1.9736   -4.6495    8.1232 H         1 <0>         0.1238
     49 H19         3.9074   -3.2393    7.5443 H         1 <0>         0.1254
     50 H20         3.6418   -1.3776    5.9549 H         1 <0>         0.1243
     51 H21         0.8661   -0.6972   -2.4617 H         1 <0>         0.1221
     52 H22        -0.4711   -1.5343   -4.3523 H         1 <0>         0.1224
     53 H23        -2.9069   -1.8047   -4.1134 H         1 <0>         0.1212
     54 H24        -4.0044   -1.2455   -1.9812 H         1 <0>         0.1217
     55 H25        -2.6659   -0.4173   -0.0876 H         1 <0>         0.1207
@<TRIPOS>BOND
     1    1    6 ar
     2    1    2 ar
     3    1   31 1
     4    2    3 ar
     5    2   32 1
     6    3    4 ar
     7    3   33 1
     8    4    5 ar
     9    4    7 1
    10    5    6 ar
    11    5   34 1
    12    6   35 1
    13    7    8 1
    14    7   25 1
    15    7   36 1
    16    8    9 1
    17    8   37 1
    18    8   38 1
    19    9   10 2
    20    9   11 am
    21   11   12 1
    22   11   39 1
    23   12   13 1
    24   12   19 1
    25   12   40 1
    26   13   18 ar
    27   13   14 ar
    28   14   15 ar
    29   14   41 1
    30   15   16 ar
    31   15   42 1
    32   16   17 ar
    33   16   43 1
    34   17   18 ar
    35   17   44 1
    36   18   45 1
    37   19   24 ar
    38   19   20 ar
    39   20   21 ar
    40   20   46 1
    41   21   22 ar
    42   21   47 1
    43   22   23 ar
    44   22   48 1
    45   23   24 ar
    46   23   49 1
    47   24   50 1
    48   25   30 ar
    49   25   26 ar
    50   26   27 ar
    51   26   51 1
    52   27   28 ar
    53   27   52 1
    54   28   29 ar
    55   28   53 1
    56   29   30 ar
    57   29   54 1
    58   30   55 1
@<TRIPOS>MOLECULE
ZINC13723351
   40    41     0     0     0
SMALL
USER_CHARGES
N-[(3,5-dichloro-4-ethoxy-phenyl)methyl]-2-(2,4-dichlorophenyl)ethanamine
@<TRIPOS>ATOM
      1 C1         -3.0672    3.1759   -6.9412 C.3       1 <0>        -0.1522
      2 C2         -2.2000    2.5817   -5.8295 C.3       1 <0>         0.0604
      3 O1         -2.7366    2.9514   -4.5577 O.3       1 <0>        -0.3184
      4 C3         -2.0793    2.5013   -3.4561 C.ar      1 <0>         0.1177
      5 C4         -1.0633    3.2613   -2.8937 C.ar      1 <0>        -0.0463
      6 C5         -0.3969    2.8012   -1.7730 C.ar      1 <0>        -0.0885
      7 C6         -0.7416    1.5850   -1.2129 C.ar      1 <0>        -0.0629
      8 C7         -1.7498    0.8234   -1.7741 C.ar      1 <0>        -0.0715
      9 C8         -2.4235    1.2811   -2.8914 C.ar      1 <0>        -0.0466
     10 Cl1        -3.6942    0.3274   -3.5910 Cl        1 <0>        -0.0416
     11 C9         -0.0127    1.0858    0.0080 C.3       1 <0>         0.0904
     12 N1         -0.7003    1.5596    1.2166 N.3       1 <0>        -0.6648
     13 C10        -0.0162    1.0911    2.4293 C.3       1 <0>         0.0531
     14 C11        -0.7598    1.6033    3.6644 C.3       1 <0>        -0.0835
     15 C12        -0.0580    1.1228    4.9085 C.ar      1 <0>        -0.0683
     16 C13         0.7900    1.9716    5.5951 C.ar      1 <0>        -0.0919
     17 C14         1.4336    1.5317    6.7363 C.ar      1 <0>        -0.1029
     18 C15         1.2294    0.2412    7.1923 C.ar      1 <0>        -0.0281
     19 C16         0.3811   -0.6084    6.5057 C.ar      1 <0>        -0.1008
     20 C17        -0.2670   -0.1658    5.3663 C.ar      1 <0>        -0.0235
     21 Cl2        -1.3371   -1.2294    4.5076 Cl        1 <0>        -0.0484
     22 Cl3         2.0383   -0.3113    8.6255 Cl        1 <0>        -0.0556
     23 Cl4        -0.6298    4.7884   -3.5964 Cl        1 <0>        -0.0427
     24 H1         -2.6541    2.8913   -7.9202 H         1 <0>         0.0787
     25 H2         -3.0771    4.2722   -6.8521 H         1 <0>         0.0676
     26 H3         -4.0938    2.7913   -6.8506 H         1 <0>         0.0677
     27 H4         -2.1901    1.4854   -5.9186 H         1 <0>         0.0572
     28 H5         -1.1734    2.9662   -5.9201 H         1 <0>         0.0570
     29 H6          0.3938    3.3921   -1.3350 H         1 <0>         0.1422
     30 H7         -2.0139   -0.1283   -1.3370 H         1 <0>         0.1454
     31 H8          0.0022   -0.0141    0.0020 H         1 <0>         0.0895
     32 H9          1.0193    1.4665    0.0002 H         1 <0>         0.0495
     33 H10        -0.7152    2.6595    1.2226 H         1 <0>         0.3429
     34 H11        -0.0013   -0.0087    2.4401 H         1 <0>         0.0800
     35 H12         1.0158    1.4719    2.4385 H         1 <0>         0.0361
     36 H13        -0.7748    2.7031    3.6535 H         1 <0>         0.0809
     37 H14        -1.7917    1.2225    3.6553 H         1 <0>         0.0938
     38 H15         0.9494    2.9789    5.2398 H         1 <0>         0.1422
     39 H16         2.0957    2.1954    7.2725 H         1 <0>         0.1412
     40 H17         0.2212   -1.6156    6.8614 H         1 <0>         0.1448
@<TRIPOS>BOND
     1    1    2 1
     2    1   24 1
     3    1   25 1
     4    1   26 1
     5    2    3 1
     6    2   27 1
     7    2   28 1
     8    3    4 1
     9    4    9 ar
    10    4    5 ar
    11    5    6 ar
    12    5   23 1
    13    6    7 ar
    14    6   29 1
    15    7    8 ar
    16    7   11 1
    17    8    9 ar
    18    8   30 1
    19    9   10 1
    20   11   12 1
    21   11   31 1
    22   11   32 1
    23   12   13 1
    24   12   33 1
    25   13   14 1
    26   13   34 1
    27   13   35 1
    28   14   15 1
    29   14   36 1
    30   14   37 1
    31   15   20 ar
    32   15   16 ar
    33   16   17 ar
    34   16   38 1
    35   17   18 ar
    36   17   39 1
    37   18   19 ar
    38   18   22 1
    39   19   20 ar
    40   19   40 1
    41   20   21 1
@<TRIPOS>MOLECULE
ZINC20440924
   63    65     0     0     0
SMALL
USER_CHARGES

@<TRIPOS>ATOM
      1 C1         -0.2376    0.5813    0.5818 C.3       1 <0>        -0.1494
      2 C2         -0.4092   -0.8149   -0.0200 C.3       1 <0>        -0.1246
      3 C3          0.4870   -0.9527   -1.2524 C.3       1 <0>        -0.1326
      4 C4          0.3154   -2.3489   -1.8541 C.3       1 <0>        -0.0957
      5 C5          1.3216   -2.5418   -2.9904 C.3       1 <0>         0.1897
      6 C6          1.2706   -3.9696   -3.4697 C.ar      1 <0>        -0.1162
      7 C7          0.1948   -4.4094   -4.2181 C.ar      1 <0>        -0.1069
      8 C8          0.1480   -5.7191   -4.6578 C.ar      1 <0>        -0.1166
      9 C9          1.1771   -6.5889   -4.3494 C.ar      1 <0>        -0.0786
     10 C10         2.2534   -6.1489   -3.6017 C.ar      1 <0>        -0.1155
     11 C11         2.3022   -4.8380   -3.1657 C.ar      1 <0>        -0.1057
     12 C12         1.1256   -8.0170   -4.8278 C.3       1 <0>        -0.0880
     13 C13         1.7931   -8.1193   -6.2008 C.3       1 <0>        -0.1466
     14 C14         0.9714   -1.6029   -4.1466 C.3       1 <0>        -0.0673
     15 H1         -0.0801   -1.7237   -4.4070 H         1 <0>         0.0870
     16 C15         1.8395   -1.9421   -5.3599 C.3       1 <0>         0.0592
     17 N1          1.4083   -1.1374   -6.5108 N.3       1 <0>        -0.5249
     18 C16         0.0544   -1.5162   -6.9409 C.3       1 <0>         0.0164
     19 C17        -0.3775   -0.6151   -8.1008 C.3       1 <0>         0.0638
     20 O1          0.5767   -0.7208   -9.1608 O.3       1 <0>        -0.3848
     21 C18         1.9060   -0.3588   -8.7771 C.3       1 <0>         0.0643
     22 C19         2.3611   -1.2573   -7.6240 C.3       1 <0>         0.0192
     23 C20         1.2251   -0.1769   -3.7302 C.ar      1 <0>        -0.0394
     24 C21         2.4574    0.1849   -3.2187 C.ar      1 <0>        -0.1058
     25 C22         2.6901    1.4929   -2.8368 C.ar      1 <0>        -0.1209
     26 C23         1.6909    2.4392   -2.9669 C.ar      1 <0>        -0.1251
     27 C24         0.4589    2.0775   -3.4792 C.ar      1 <0>        -0.1212
     28 C25         0.2276    0.7705   -3.8651 C.ar      1 <0>        -0.1122
     29 O2          2.6370   -2.2448   -2.5174 O.3       1 <0>        -0.5385
     30 H2          0.8032    0.7268    0.8712 H         1 <0>         0.0523
     31 H3         -0.5177    1.3323   -0.1570 H         1 <0>         0.0528
     32 H4         -0.8760    0.6795    1.4598 H         1 <0>         0.0500
     33 H5         -0.1291   -1.5658    0.7188 H         1 <0>         0.0556
     34 H6         -1.4499   -0.9604   -0.3094 H         1 <0>         0.0552
     35 H7          0.2069   -0.2018   -1.9911 H         1 <0>         0.0846
     36 H8          1.5277   -0.8072   -0.9629 H         1 <0>         0.0737
     37 H9          0.4888   -3.1004   -1.0838 H         1 <0>         0.0684
     38 H10        -0.6972   -2.4548   -2.2435 H         1 <0>         0.0705
     39 H11        -0.6093   -3.7298   -4.4591 H         1 <0>         0.1182
     40 H12        -0.6929   -6.0629   -5.2419 H         1 <0>         0.1207
     41 H13         3.0573   -6.8286   -3.3605 H         1 <0>         0.1214
     42 H14         3.1448   -4.4932   -2.5847 H         1 <0>         0.1290
     43 H15         1.6519   -8.6568   -4.1194 H         1 <0>         0.0722
     44 H16         0.0866   -8.3374   -4.9042 H         1 <0>         0.0718
     45 H17         1.7558   -9.1523   -6.5468 H         1 <0>         0.0593
     46 H18         1.2668   -7.4796   -6.9092 H         1 <0>         0.0547
     47 H19         2.8322   -7.7990   -6.1244 H         1 <0>         0.0552
     48 H20         2.8827   -1.7221   -5.1332 H         1 <0>         0.0744
     49 H21         1.7347   -3.0008   -5.5971 H         1 <0>         0.0481
     50 H22         0.0540   -2.5559   -7.2680 H         1 <0>         0.0426
     51 H23        -0.6389   -1.3955   -6.1085 H         1 <0>         0.0845
     52 H24        -1.3573   -0.9294   -8.4604 H         1 <0>         0.0967
     53 H25        -0.4289    0.4186   -7.7590 H         1 <0>         0.0602
     54 H26         2.5777   -0.4876   -9.6258 H         1 <0>         0.0975
     55 H27         1.9210    0.6824   -8.4550 H         1 <0>         0.0603
     56 H28         3.3515   -0.9476   -7.2904 H         1 <0>         0.0853
     57 H29         2.3975   -2.2929   -7.9621 H         1 <0>         0.0417
     58 H30         3.2381   -0.5544   -3.1171 H         1 <0>         0.1320
     59 H31         3.6526    1.7754   -2.4365 H         1 <0>         0.1151
     60 H32         1.8725    3.4609   -2.6678 H         1 <0>         0.1144
     61 H33        -0.3219    2.8168   -3.5805 H         1 <0>         0.1153
     62 H34        -0.7337    0.4887   -4.2689 H         1 <0>         0.1117
     63 H35         3.3277   -2.3461   -3.1865 H         1 <0>         0.3720
@<TRIPOS>BOND
     1    1    2 1
     2    1   30 1
     3    1   31 1
     4    1   32 1
     5    2    3 1
     6    2   33 1
     7    2   34 1
     8    3    4 1
     9    3   35 1
    10    3   36 1
    11    4    5 1
    12    4   37 1
    13    4   38 1
    14    5    6 1
    15    5   14 1
    16    5   29 1
    17    6   11 ar
    18    6    7 ar
    19    7    8 ar
    20    7   39 1
    21    8    9 ar
    22    8   40 1
    23    9   10 ar
    24    9   12 1
    25   10   11 ar
    26   10   41 1
    27   11   42 1
    28   12   13 1
    29   12   43 1
    30   12   44 1
    31   13   45 1
    32   13   46 1
    33   13   47 1
    34   14   15 1
    35   14   16 1
    36   14   23 1
    37   16   17 1
    38   16   48 1
    39   16   49 1
    40   17   22 1
    41   17   18 1
    42   18   19 1
    43   18   50 1
    44   18   51 1
    45   19   20 1
    46   19   52 1
    47   19   53 1
    48   20   21 1
    49   21   22 1
    50   21   54 1
    51   21   55 1
    52   22   56 1
    53   22   57 1
    54   23   28 ar
    55   23   24 ar
    56   24   25 ar
    57   24   58 1
    58   25   26 ar
    59   25   59 1
    60   26   27 ar
    61   26   60 1
    62   27   28 ar
    63   27   61 1
    64   28   62 1
    65   29   63 1
@<TRIPOS>MOLECULE
ZINC06283910
   62    64     0     0     0
SMALL
USER_CHARGES

@<TRIPOS>ATOM
      1 C1         -2.0361   -6.0897    3.1256 C.3       1 <0>        -0.1481
      2 C2         -3.4256   -5.5943    3.5316 C.3       1 <0>        -0.0810
      3 C3         -3.9057   -4.5718    2.5341 C.ar      1 <0>        -0.1164
      4 C4         -3.6193   -3.2327    2.7266 C.ar      1 <0>        -0.0748
      5 C5         -4.0578   -2.2931    1.8143 C.ar      1 <0>        -0.1618
      6 C6         -4.7871   -2.6944    0.7026 C.ar      1 <0>         0.1923
      7 C7         -5.0730   -4.0401    0.5122 C.ar      1 <0>        -0.1726
      8 C8         -4.6268   -4.9753    1.4253 C.ar      1 <0>        -0.0712
      9 N1         -5.2331   -1.7452   -0.2232 N.pl3     1 <0>        -0.6946
     10 C9         -5.8559   -2.1437   -1.3500 C.2       1 <0>         0.5770
     11 S1         -4.9994   -2.1870   -2.8318 S.2       1 <0>        -0.5604
     12 N2         -7.1528   -2.5082   -1.3104 N.pl3     1 <0>        -0.5169
     13 C10        -7.7972   -3.0539   -2.5075 C.3       1 <0>         0.1270
     14 C11        -7.5320   -4.5351   -2.5898 C.ar      1 <0>        -0.1194
     15 C12        -6.3439   -4.9958   -3.1256 C.ar      1 <0>        -0.0934
     16 C13        -6.1006   -6.3544   -3.2010 C.ar      1 <0>        -0.1219
     17 C14        -7.0452   -7.2524   -2.7404 C.ar      1 <0>        -0.0624
     18 C15        -8.2330   -6.7917   -2.2038 C.ar      1 <0>        -0.1217
     19 C16        -8.4744   -5.4329   -2.1244 C.ar      1 <0>        -0.1075
     20 C17        -6.7804   -8.7336   -2.8236 C.3       1 <0>        -0.0605
     21 C18        -6.8088   -9.3366   -1.4177 C.3       1 <0>        -0.1435
     22 C19        -7.8572   -9.3967   -3.6848 C.3       1 <0>        -0.1442
     23 C20        -7.9181   -2.3586   -0.0702 C.3       1 <0>         0.1608
     24 H1         -7.3956   -2.8634    0.7423 H         1 <0>         0.1004
     25 C21        -9.3049   -2.9799   -0.2486 C.3       1 <0>        -0.1688
     26 C22        -8.0620   -0.8948    0.2579 C.ar      1 <0>        -0.1066
     27 C23        -8.4130    0.0041   -0.7319 C.ar      1 <0>        -0.1039
     28 C24        -8.5449    1.3469   -0.4309 C.ar      1 <0>        -0.1154
     29 C25        -8.3262    1.7906    0.8599 C.ar      1 <0>        -0.1113
     30 C26        -7.9761    0.8916    1.8498 C.ar      1 <0>        -0.1161
     31 C27        -7.8483   -0.4518    1.5498 C.ar      1 <0>        -0.1016
     32 H2         -1.6889   -6.8293    3.8471 H         1 <0>         0.0572
     33 H3         -2.0871   -6.5436    2.1359 H         1 <0>         0.0550
     34 H4         -1.3425   -5.2491    3.1045 H         1 <0>         0.0556
     35 H5         -4.1192   -6.4349    3.5527 H         1 <0>         0.0691
     36 H6         -3.3746   -5.1404    4.5213 H         1 <0>         0.0702
     37 H7         -3.0524   -2.9212    3.5915 H         1 <0>         0.1258
     38 H8         -3.8341   -1.2474    1.9654 H         1 <0>         0.1253
     39 H9         -5.6403   -4.3553   -0.3511 H         1 <0>         0.1198
     40 H10        -4.8450   -6.0223    1.2755 H         1 <0>         0.1219
     41 H11        -5.0942   -0.8002   -0.0540 H         1 <0>         0.4236
     42 H12        -8.8718   -2.8797   -2.4531 H         1 <0>         0.1038
     43 H13        -7.3939   -2.5628   -3.3931 H         1 <0>         0.1216
     44 H14        -5.6058   -4.2942   -3.4854 H         1 <0>         0.1542
     45 H15        -5.1726   -6.7144   -3.6202 H         1 <0>         0.1210
     46 H16        -8.9711   -7.4933   -1.8443 H         1 <0>         0.1204
     47 H17        -9.4008   -5.0729   -1.7018 H         1 <0>         0.1229
     48 H18        -5.8014   -8.9031   -3.2718 H         1 <0>         0.0778
     49 H19        -6.6173  -10.4079   -1.4779 H         1 <0>         0.0589
     50 H20        -6.0417   -8.8642   -0.8042 H         1 <0>         0.0551
     51 H21        -7.7879   -9.1671   -0.9695 H         1 <0>         0.0560
     52 H22        -7.8370   -8.9671   -4.6864 H         1 <0>         0.0564
     53 H23        -7.6657  -10.4680   -3.7450 H         1 <0>         0.0588
     54 H24        -8.8363   -9.2272   -3.2365 H         1 <0>         0.0563
     55 H25        -9.2053   -4.0560   -0.3909 H         1 <0>         0.0805
     56 H26        -9.9072   -2.7849    0.6387 H         1 <0>         0.0815
     57 H27        -9.7900   -2.5414   -1.1206 H         1 <0>         0.0731
     58 H28        -8.5839   -0.3426   -1.7403 H         1 <0>         0.1189
     59 H29        -8.8185    2.0493   -1.2044 H         1 <0>         0.1249
     60 H30        -8.4286    2.8398    1.0948 H         1 <0>         0.1248
     61 H31        -7.8049    1.2383    2.8582 H         1 <0>         0.1257
     62 H32        -7.5784   -1.1547    2.3240 H         1 <0>         0.1226
@<TRIPOS>BOND
     1    1    2 1
     2    1   32 1
     3    1   33 1
     4    1   34 1
     5    2    3 1
     6    2   35 1
     7    2   36 1
     8    3    8 ar
     9    3    4 ar
    10    4    5 ar
    11    4   37 1
    12    5    6 ar
    13    5   38 1
    14    6    7 ar
    15    6    9 1
    16    7    8 ar
    17    7   39 1
    18    8   40 1
    19    9   10 1
    20    9   41 1
    21   10   11 2
    22   10   12 1
    23   12   13 1
    24   12   23 1
    25   13   14 1
    26   13   42 1
    27   13   43 1
    28   14   19 ar
    29   14   15 ar
    30   15   16 ar
    31   15   44 1
    32   16   17 ar
    33   16   45 1
    34   17   18 ar
    35   17   20 1
    36   18   19 ar
    37   18   46 1
    38   19   47 1
    39   20   21 1
    40   20   22 1
    41   20   48 1
    42   21   49 1
    43   21   50 1
    44   21   51 1
    45   22   52 1
    46   22   53 1
    47   22   54 1
    48   23   24 1
    49   23   25 1
    50   23   26 1
    51   25   55 1
    52   25   56 1
    53   25   57 1
    54   26   31 ar
    55   26   27 ar
    56   27   28 ar
    57   27   58 1
    58   28   29 ar
    59   28   59 1
    60   29   30 ar
    61   29   60 1
    62   30   31 ar
    63   30   61 1
    64   31   62 1
@<TRIPOS>MOLECULE
ZINC66161685
   44    46     0     0     0
SMALL
USER_CHARGES

@<TRIPOS>ATOM
      1 C1         -0.0167    1.3781    0.0096 C.ar      1 <0>        -0.1189
      2 C2          1.1709    2.0855    0.0021 C.ar      1 <0>        -0.1179
      3 C3          2.3773    1.4107   -0.0130 C.ar      1 <0>        -0.1134
      4 C4          2.3960    0.0285   -0.0201 C.ar      1 <0>        -0.0878
      5 C5          1.2084   -0.6789   -0.0117 C.ar      1 <0>        -0.1135
      6 C6          0.0021   -0.0041    0.0020 C.ar      1 <0>        -0.1179
      7 C7          3.7112   -0.7071   -0.0376 C.3       1 <0>        -0.0784
      8 C8          4.1714   -0.9633    1.3989 C.3       1 <0>         0.0657
      9 O1          5.4184   -1.6609    1.3824 O.3       1 <0>        -0.3141
     10 C9          5.9695   -1.9681    2.5860 C.ar      1 <0>         0.1311
     11 C10         5.3204   -1.6106    3.7591 C.ar      1 <0>        -0.1989
     12 C11         5.8824   -1.9244    4.9812 C.ar      1 <0>        -0.0796
     13 C12         7.0909   -2.5943    5.0362 C.ar      1 <0>        -0.1371
     14 C13         7.7399   -2.9512    3.8689 C.ar      1 <0>        -0.0720
     15 C14         7.1791   -2.6446    2.6439 C.ar      1 <0>        -0.1324
     16 C15         9.0570   -3.6807    3.9325 C.3       1 <0>         0.1646
     17 N1          8.8147   -5.1254    3.9506 N.pl3     1 <0>        -0.7344
     18 C16         9.8912   -6.0134    4.0081 C.ar      1 <0>         0.2434
     19 C17        11.1918   -5.5280    4.0540 C.ar      1 <0>        -0.1891
     20 C18        12.2553   -6.4091    4.1114 C.ar      1 <0>         0.0266
     21 C19        12.0252   -7.7736    4.1230 C.ar      1 <0>        -0.1642
     22 C20        10.7305   -8.2600    4.0769 C.ar      1 <0>         0.0264
     23 C21         9.6629   -7.3834    4.0252 C.ar      1 <0>        -0.1849
     24 Cl1        10.4464   -9.9725    4.0906 Cl        1 <0>        -0.0565
     25 Cl2        13.8812   -5.8034    4.1683 Cl        1 <0>        -0.0566
     26 H1         -0.9591    1.9053    0.0259 H         1 <0>         0.1234
     27 H2          1.1563    3.1654    0.0076 H         1 <0>         0.1241
     28 H3          3.3051    1.9634   -0.0196 H         1 <0>         0.1233
     29 H4          1.2231   -1.7588   -0.0176 H         1 <0>         0.1231
     30 H5         -0.9258   -0.5567    0.0082 H         1 <0>         0.1241
     31 H6          3.5884   -1.6586   -0.5549 H         1 <0>         0.0851
     32 H7          4.4573   -0.1052   -0.5563 H         1 <0>         0.0853
     33 H8          4.2941   -0.0118    1.9163 H         1 <0>         0.0651
     34 H9          3.4252   -1.5652    1.9176 H         1 <0>         0.0648
     35 H10         4.3767   -1.0871    3.7166 H         1 <0>         0.1293
     36 H11         5.3777   -1.6461    5.8945 H         1 <0>         0.1285
     37 H12         7.5287   -2.8388    5.9928 H         1 <0>         0.1268
     38 H13         7.6843   -2.9276    1.7322 H         1 <0>         0.1330
     39 H14         9.6572   -3.4238    3.0597 H         1 <0>         0.0748
     40 H15         9.5898   -3.3903    4.8380 H         1 <0>         0.0758
     41 H16         7.9066   -5.4652    3.9226 H         1 <0>         0.4064
     42 H17        11.3720   -4.4632    4.0446 H         1 <0>         0.1383
     43 H18        12.8576   -8.4603    4.1679 H         1 <0>         0.1411
     44 H19         8.6525   -7.7634    3.9941 H         1 <0>         0.1374
@<TRIPOS>BOND
     1    1    6 ar
     2    1    2 ar
     3    1   26 1
     4    2    3 ar
     5    2   27 1
     6    3    4 ar
     7    3   28 1
     8    4    5 ar
     9    4    7 1
    10    5    6 ar
    11    5   29 1
    12    6   30 1
    13    7    8 1
    14    7   31 1
    15    7   32 1
    16    8    9 1
    17    8   33 1
    18    8   34 1
    19    9   10 1
    20   10   15 ar
    21   10   11 ar
    22   11   12 ar
    23   11   35 1
    24   12   13 ar
    25   12   36 1
    26   13   14 ar
    27   13   37 1
    28   14   15 ar
    29   14   16 1
    30   15   38 1
    31   16   17 1
    32   16   39 1
    33   16   40 1
    34   17   18 1
    35   17   41 1
    36   18   23 ar
    37   18   19 ar
    38   19   20 ar
    39   19   42 1
    40   20   21 ar
    41   20   25 1
    42   21   22 ar
    43   21   43 1
    44   22   23 ar
    45   22   24 1
    46   23   44 1
@<TRIPOS>MOLECULE
ZINC13343794
   28    29     0     0     0
SMALL
USER_CHARGES
3,5,6-trichloro-4-[(N'E)-N'-[(2,3-dichlorophenyl)methylene]hydrazino]pyridine-2-carboxylic acid
@<TRIPOS>ATOM
      1 C1          1.4202    2.1121   -1.1603 C.ar      1 <0>        -0.1076
      2 C2          2.5058    1.4403   -0.6376 C.ar      1 <0>        -0.0830
      3 C3          2.5618    0.0464   -0.7089 C.ar      1 <0>        -0.0157
      4 C4          1.5152   -0.6587   -1.3106 C.ar      1 <0>        -0.0193
      5 C5          0.4343    0.0275   -1.8299 C.ar      1 <0>        -0.0366
      6 C6          0.3873    1.4094   -1.7547 C.ar      1 <0>        -0.0943
      7 Cl1        -0.8670   -0.8444   -2.5784 Cl        1 <0>        -0.0485
      8 Cl2         1.5739   -2.3911   -1.4056 Cl        1 <0>         0.0057
      9 C7          3.7188   -0.6779   -0.1517 C.2       1 <0>         0.0551
     10 N1          3.7890   -1.9698   -0.2592 N.2       1 <0>        -0.1736
     11 N2          4.9484   -2.6444    0.1453 N.pl3     1 <0>        -0.5731
     12 C8          4.9822   -4.0362    0.1382 C.ar      1 <0>         0.2532
     13 C9          6.1545   -4.7221   -0.1868 C.ar      1 <0>        -0.0949
     14 C10         6.1447   -6.1138   -0.1813 C.ar      1 <0>         0.1606
     15 N3          5.0374   -6.7825    0.1279 N.ar      1 <0>        -0.4194
     16 C11         3.9172   -6.1648    0.4385 C.ar      1 <0>         0.1972
     17 C12         3.8482   -4.7802    0.4610 C.ar      1 <0>        -0.1086
     18 Cl3         2.3645   -3.9820    0.8797 Cl        1 <0>        -0.0193
     19 Cl4         2.5071   -7.0977    0.8318 Cl        1 <0>        -0.0165
     20 C13         7.3775   -6.8563   -0.5231 C.2       1 <0>         0.4991
     21 O1          8.3918   -6.2515   -0.8067 O.co2     1 <0>        -0.5927
     22 Cl5         7.6015   -3.8523   -0.5909 Cl        1 <0>        -0.0064
     23 H1          1.3765    3.1898   -1.1054 H         1 <0>         0.1410
     24 H2          3.3108    1.9910   -0.1738 H         1 <0>         0.1422
     25 H3         -0.4577    1.9415   -2.1661 H         1 <0>         0.1414
     26 H4          4.5080   -0.1337    0.3458 H         1 <0>         0.1280
     27 H5          5.7275   -2.1418    0.4304 H         1 <0>         0.3978
     28 O2          7.3752   -8.2033   -0.5198 O.co2     1 <0>        -0.7117
@<TRIPOS>BOND
     1    1    6 ar
     2    1    2 ar
     3    1   23 1
     4    2    3 ar
     5    2   24 1
     6    3    4 ar
     7    3    9 1
     8    4    5 ar
     9    4    8 1
    10    5    6 ar
    11    5    7 1
    12    6   25 1
    13    9   10 2
    14    9   26 1
    15   10   11 1
    16   11   12 1
    17   11   27 1
    18   12   17 ar
    19   12   13 ar
    20   13   14 ar
    21   13   22 1
    22   14   15 ar
    23   14   20 1
    24   15   16 ar
    25   16   17 ar
    26   16   19 1
    27   17   18 1
    28   20   21 2
    29   20   28 1
@<TRIPOS>MOLECULE
ZINC27750314
   40    43     0     0     0
SMALL
USER_CHARGES
3-chloro-6-fluoro-N-[5-(o-tolylmethylsulfanyl)-1,3,4-thiadiazol-2-yl]benzothiophene-2-carboxamide
@<TRIPOS>ATOM
      1 C1        -11.0825   -0.5279   -2.4539 C.3       1 <0>        -0.1264
      2 C2        -11.8213   -0.6488   -1.1459 C.ar      1 <0>        -0.0627
      3 C3        -13.1880   -0.8575   -1.1407 C.ar      1 <0>        -0.1229
      4 C4        -13.8655   -0.9688    0.0589 C.ar      1 <0>        -0.1128
      5 C5        -13.1765   -0.8714    1.2535 C.ar      1 <0>        -0.1279
      6 C6        -11.8094   -0.6680    1.2483 C.ar      1 <0>        -0.0954
      7 C7        -11.1325   -0.5514    0.0484 C.ar      1 <0>        -0.0738
      8 C8         -9.6427   -0.3244    0.0427 C.3       1 <0>        -0.0711
      9 S1         -9.3026    1.4575    0.0511 S.3       1 <0>         0.0105
     10 C9         -7.5434    1.5557    0.0434 C.2       1 <0>        -0.0074
     11 N1         -6.6511    0.5827    0.0342 N.2       1 <0>        -0.2820
     12 N2         -5.3091    0.8857    0.0302 N.2       1 <0>        -0.3859
     13 C10        -4.9205    2.1455    0.0356 C.2       1 <0>         0.3810
     14 S2         -6.4900    2.9983    0.0550 S.3       1 <0>        -0.0772
     15 N3         -3.6319    2.6706    0.0331 N.2       1 <0>        -0.6486
     16 C11        -2.5674    1.8440    0.0235 C.2       1 <0>         0.5325
     17 O1         -2.7333    0.6384    0.0169 O.3       1 <0>        -0.5321
     18 C12        -1.2088    2.3976    0.0208 C.2       1 <0>        -0.0918
     19 C13        -0.0215    1.7317    0.0116 C.2       1 <0>        -0.0407
     20 C14         1.1869    2.4533    0.0039 C.ar      1 <0>        -0.0932
     21 C15         2.5119    1.9459   -0.0111 C.ar      1 <0>        -0.0374
     22 C16         3.5780    2.7859   -0.0164 C.ar      1 <0>        -0.1561
     23 C17         3.4170    4.1686   -0.0074 C.ar      1 <0>         0.1175
     24 C18         2.1427    4.7044    0.0073 C.ar      1 <0>        -0.1066
     25 C19         1.0520    3.8619    0.0128 C.ar      1 <0>        -0.1114
     26 S3         -0.7057    4.1096    0.0310 S.3       1 <0>         0.1489
     27 F1          4.4971    4.9801   -0.0134 F         1 <0>        -0.1333
     28 Cl1         0.0021   -0.0041    0.0020 Cl        1 <0>        -0.0327
     29 H1        -11.7931   -0.6309   -3.2872 H         1 <0>         0.0658
     30 H2        -10.3223   -1.3202   -2.5202 H         1 <0>         0.0727
     31 H3        -10.5929    0.4556   -2.5089 H         1 <0>         0.0811
     32 H4        -13.7262   -0.9340   -2.0739 H         1 <0>         0.1227
     33 H5        -14.9330   -1.1322    0.0630 H         1 <0>         0.1209
     34 H6        -13.7058   -0.9588    2.1909 H         1 <0>         0.1225
     35 H7        -11.2705   -0.5964    2.1815 H         1 <0>         0.1264
     36 H8         -9.1979   -0.7868    0.9362 H         1 <0>         0.1012
     37 H9         -9.2063   -0.7768   -0.8600 H         1 <0>         0.1036
     38 H10         2.6740    0.8781   -0.0184 H         1 <0>         0.1373
     39 H11         4.5753    2.3715   -0.0275 H         1 <0>         0.1393
     40 H12         2.0030    5.7753    0.0141 H         1 <0>         0.1455
@<TRIPOS>BOND
     1    1    2 1
     2    1   29 1
     3    1   30 1
     4    1   31 1
     5    2    7 ar
     6    2    3 ar
     7    3    4 ar
     8    3   32 1
     9    4    5 ar
    10    4   33 1
    11    5    6 ar
    12    5   34 1
    13    6    7 ar
    14    6   35 1
    15    7    8 1
    16    8    9 1
    17    8   36 1
    18    8   37 1
    19    9   10 1
    20   10   14 1
    21   10   11 2
    22   11   12 1
    23   12   13 2
    24   13   14 1
    25   13   15 1
    26   15   16 2
    27   16   17 1
    28   16   18 1
    29   18   26 1
    30   18   19 2
    31   19   20 1
    32   19   28 1
    33   20   25 ar
    34   20   21 ar
    35   21   22 ar
    36   21   38 1
    37   22   23 ar
    38   22   39 1
    39   23   24 ar
    40   23   27 1
    41   24   25 ar
    42   24   40 1
    43   25   26 1
@<TRIPOS>MOLECULE
ZINC02630332
   60    64     0     0     0
SMALL
USER_CHARGES
4-[[1-(3,4-dimethylphenyl)-2,5-dimethyl-pyrrol-3-yl]methyleneamino]-3-(1-naphthylmethyl)-1H-1,2,4-triazole-5-thione
@<TRIPOS>ATOM
      1 C1         -5.8453    1.1986   -2.8125 C.3       1 <0>        -0.1161
      2 C2         -4.8371    1.3647   -1.7049 C.ar      1 <0>        -0.0817
      3 C3         -4.1758    0.2590   -1.2021 C.ar      1 <0>        -0.1031
      4 C4         -3.2517    0.4080   -0.1867 C.ar      1 <0>        -0.1096
      5 C5         -2.9868    1.6696    0.3294 C.ar      1 <0>         0.1195
      6 C6         -3.6560    2.7769   -0.1738 C.ar      1 <0>        -0.1058
      7 C7         -4.5755    2.6221   -1.1930 C.ar      1 <0>        -0.0772
      8 C8         -5.2986    3.8243   -1.7434 C.3       1 <0>        -0.1146
      9 N1         -2.0498    1.8240    1.3602 N.pl3     1 <0>        -0.4061
     10 C9         -2.3405    2.2464    2.6261 C.2       1 <0>         0.0190
     11 C10        -1.2037    2.2818    3.3451 C.2       1 <0>        -0.1550
     12 C11        -0.1290    1.8405    2.4508 C.2       1 <0>        -0.1513
     13 C12        -0.7181    1.5718    1.2479 C.2       1 <0>         0.1096
     14 C13        -0.0127    1.0858    0.0080 C.3       1 <0>        -0.1090
     15 C14         1.3007    1.7121    2.7832 C.2       1 <0>         0.2239
     16 N2          2.1429    1.3055    1.8821 N.2       1 <0>        -0.2617
     17 N3          3.5023    1.1834    2.1982 N.pl3     1 <0>        -0.3701
     18 C15         4.4524    2.1657    2.0564 C.2       1 <0>         0.1788
     19 N4          5.5953    1.7008    2.4495 N.2       1 <0>        -0.3182
     20 N5          5.4095    0.3720    2.8552 N.2       1 <0>        -0.3785
     21 C16         4.1027    0.0801    2.6879 C.2       1 <0>         0.3922
     22 S1          3.3461   -1.4159    3.0347 S.3       1 <0>        -0.7767
     23 C17         4.2043    3.5571    1.5337 C.3       1 <0>         0.0059
     24 C18         3.8547    4.4698    2.6808 C.ar      1 <0>        -0.0571
     25 C19         2.5512    4.7111    2.9904 C.ar      1 <0>        -0.1172
     26 C20         2.2087    5.5465    4.0517 C.ar      1 <0>        -0.1089
     27 C21         3.1676    6.1558    4.8017 C.ar      1 <0>        -0.1140
     28 C22         4.5238    5.9358    4.5082 C.ar      1 <0>        -0.0496
     29 C23         4.8723    5.0806    3.4328 C.ar      1 <0>        -0.0407
     30 C24         6.2291    4.8611    3.1390 C.ar      1 <0>        -0.0831
     31 C25         7.1875    5.4706    3.8886 C.ar      1 <0>        -0.1245
     32 C26         6.8448    6.3118    4.9458 C.ar      1 <0>        -0.1128
     33 C27         5.5418    6.5478    5.2595 C.ar      1 <0>        -0.1174
     34 C28        -3.7102    2.6180    3.1332 C.3       1 <0>        -0.0830
     35 H1         -5.9175    0.1356   -3.0862 H         1 <0>         0.0668
     36 H2         -5.5267    1.7821   -3.6889 H         1 <0>         0.0718
     37 H3         -6.8276    1.5569   -2.4709 H         1 <0>         0.0713
     38 H4         -4.3826   -0.7220   -1.6036 H         1 <0>         0.1309
     39 H5         -2.7359   -0.4559    0.2058 H         1 <0>         0.1308
     40 H6         -3.4553    3.7588    0.2287 H         1 <0>         0.1281
     41 H7         -4.9611    4.7285   -1.2157 H         1 <0>         0.0660
     42 H8         -6.3818    3.6984   -1.5992 H         1 <0>         0.0721
     43 H9         -5.0807    3.9235   -2.8170 H         1 <0>         0.0725
     44 H10        -1.1028    2.5771    4.3790 H         1 <0>         0.1474
     45 H11         1.0611    0.9721    0.2178 H         1 <0>         0.1226
     46 H12        -0.1526    1.8154   -0.8032 H         1 <0>         0.0642
     47 H13        -0.4318    0.1151   -0.2956 H         1 <0>         0.0680
     48 H14         1.6547    1.9606    3.7946 H         1 <0>         0.1134
     49 H15         5.1110    3.9279    1.0333 H         1 <0>         0.1014
     50 H16         3.3717    3.5358    0.8152 H         1 <0>         0.0890
     51 H17         1.7709    4.2439    2.4080 H         1 <0>         0.1206
     52 H18         1.1669    5.7173    4.2794 H         1 <0>         0.1219
     53 H19         2.8872    6.8046    5.6183 H         1 <0>         0.1233
     54 H20         6.5096    4.2118    2.3228 H         1 <0>         0.1363
     55 H21         8.2293    5.3002    3.6607 H         1 <0>         0.1215
     56 H22         7.6251    6.7836    5.5245 H         1 <0>         0.1187
     57 H23         5.2913    7.2023    6.0812 H         1 <0>         0.1223
     58 H24        -3.6410    2.9199    4.1887 H         1 <0>         0.0830
     59 H25        -4.3821    1.7517    3.0429 H         1 <0>         0.0654
     60 H26        -4.1072    3.4536    2.5381 H         1 <0>         0.0646
@<TRIPOS>BOND
     1    1    2 1
     2    1   35 1
     3    1   36 1
     4    1   37 1
     5    2    7 ar
     6    2    3 ar
     7    3    4 ar
     8    3   38 1
     9    4    5 ar
    10    4   39 1
    11    5    6 ar
    12    5    9 1
    13    6    7 ar
    14    6   40 1
    15    7    8 1
    16    8   41 1
    17    8   42 1
    18    8   43 1
    19    9   13 1
    20    9   10 1
    21   10   11 2
    22   10   34 1
    23   11   12 1
    24   11   44 1
    25   12   13 2
    26   12   15 1
    27   13   14 1
    28   14   45 1
    29   14   46 1
    30   14   47 1
    31   15   16 2
    32   15   48 1
    33   16   17 1
    34   17   21 1
    35   17   18 1
    36   18   19 2
    37   18   23 1
    38   19   20 1
    39   20   21 2
    40   21   22 1
    41   23   24 1
    42   23   49 1
    43   23   50 1
    44   24   29 ar
    45   24   25 ar
    46   25   26 ar
    47   25   51 1
    48   26   27 ar
    49   26   52 1
    50   27   28 ar
    51   27   53 1
    52   28   33 ar
    53   28   29 ar
    54   29   30 ar
    55   30   31 ar
    56   30   54 1
    57   31   32 ar
    58   31   55 1
    59   32   33 ar
    60   32   56 1
    61   33   57 1
    62   34   58 1
    63   34   59 1
    64   34   60 1
@<TRIPOS>MOLECULE
ZINC39866756
   44    47     0     0     0
SMALL
USER_CHARGES

@<TRIPOS>ATOM
      1 C1          0.0744    1.3450    0.9804 C.ar      1 <0>        -0.1092
      2 C2          0.5517    0.4114    1.8819 C.ar      1 <0>        -0.1077
      3 C3          1.7346   -0.2546    1.6274 C.ar      1 <0>        -0.0888
      4 C4          2.4447    0.0141    0.4648 C.ar      1 <0>         0.1194
      5 C5          1.9628    0.9522   -0.4385 C.ar      1 <0>        -0.0954
      6 C6          0.7792    1.6148   -0.1783 C.ar      1 <0>        -0.1125
      7 N1          3.6451   -0.6593    0.2039 N.am      1 <0>        -0.4953
      8 C7          4.7784    0.0196    0.1476 C.2       1 <0>         0.5581
      9 O1          4.8076    1.2241    0.3180 O.2       1 <0>        -0.4800
     10 C8          6.0071   -0.7509   -0.1311 C.2       1 <0>        -0.2005
     11 C9          7.2875   -0.3176   -0.2426 C.2       1 <0>         0.0423
     12 C10         8.3860   -1.2891   -0.3443 C.ar      1 <0>        -0.0694
     13 C11         9.5975   -0.9212   -0.9405 C.ar      1 <0>        -0.0849
     14 C12        10.6233   -1.8375   -1.0318 C.ar      1 <0>        -0.1100
     15 C13        10.4579   -3.1194   -0.5362 C.ar      1 <0>        -0.0947
     16 C14         9.2622   -3.4921    0.0554 C.ar      1 <0>        -0.0322
     17 C15         8.2278   -2.5846    0.1596 C.ar      1 <0>        -0.0906
     18 Cl1         9.0666   -5.1028    0.6727 Cl        1 <0>        -0.0537
     19 S1          5.3539   -2.4074   -0.2815 S.3       1 <0>        -0.0154
     20 C16         3.6349   -2.0262    0.0136 C.2       1 <0>         0.3597
     21 N2          2.6095   -2.8468    0.0412 N.2       1 <0>        -0.4142
     22 C17         2.7984   -4.1854   -0.1729 C.ar      1 <0>         0.0546
     23 C18         3.6219   -4.6188   -1.2160 C.ar      1 <0>        -0.1447
     24 C19         3.8137   -5.9685   -1.4336 C.ar      1 <0>        -0.1208
     25 C20         3.1946   -6.9001   -0.6240 C.ar      1 <0>        -0.0742
     26 C21         2.3679   -6.4819    0.4227 C.ar      1 <0>        -0.1221
     27 C22         2.1745   -5.1198    0.6523 C.ar      1 <0>        -0.0478
     28 C23         1.7067   -7.4789    1.2867 C.2       1 <0>         0.5215
     29 O2          1.8816   -8.6727    1.0873 O.co2     1 <0>        -0.6826
     30 O3          0.9837   -7.1114    2.2019 O.co2     1 <0>        -0.6821
     31 H1         -0.8531    1.8612    1.1795 H         1 <0>         0.1276
     32 H2         -0.0008    0.2030    2.7862 H         1 <0>         0.1318
     33 H3          2.1071   -0.9834    2.3320 H         1 <0>         0.1277
     34 H4          2.5130    1.1636   -1.3435 H         1 <0>         0.1224
     35 H5          0.4039    2.3445   -0.8805 H         1 <0>         0.1289
     36 H6          7.5000    0.7412   -0.2567 H         1 <0>         0.1614
     37 H7          9.7284    0.0782   -1.3284 H         1 <0>         0.1375
     38 H8         11.5587   -1.5546   -1.4916 H         1 <0>         0.1380
     39 H9         11.2653   -3.8327   -0.6115 H         1 <0>         0.1375
     40 H10         7.2975   -2.8748    0.6251 H         1 <0>         0.1489
     41 H11         4.1091   -3.8959   -1.8536 H         1 <0>         0.1209
     42 H12         4.4508   -6.2974   -2.2412 H         1 <0>         0.1223
     43 H13         3.3492   -7.9543   -0.8001 H         1 <0>         0.1326
     44 H14         1.5410   -4.7907    1.4627 H         1 <0>         0.1358
@<TRIPOS>BOND
     1    1    6 ar
     2    1    2 ar
     3    1   31 1
     4    2    3 ar
     5    2   32 1
     6    3    4 ar
     7    3   33 1
     8    4    5 ar
     9    4    7 1
    10    5    6 ar
    11    5   34 1
    12    6   35 1
    13    7   20 1
    14    7    8 am
    15    8    9 2
    16    8   10 1
    17   10   11 2
    18   10   19 1
    19   11   12 1
    20   11   36 1
    21   12   17 ar
    22   12   13 ar
    23   13   14 ar
    24   13   37 1
    25   14   15 ar
    26   14   38 1
    27   15   16 ar
    28   15   39 1
    29   16   17 ar
    30   16   18 1
    31   17   40 1
    32   19   20 1
    33   20   21 2
    34   21   22 1
    35   22   27 ar
    36   22   23 ar
    37   23   24 ar
    38   23   41 1
    39   24   25 ar
    40   24   42 1
    41   25   26 ar
    42   25   43 1
    43   26   27 ar
    44   26   28 1
    45   27   44 1
    46   28   29 2
    47   28   30 1
@<TRIPOS>MOLECULE
ZINC08821038
   38    41     0     0     0
SMALL
USER_CHARGES

@<TRIPOS>ATOM
      1 C1         -0.3015    0.7084    1.5570 C.ar      1 <0>        -0.0869
      2 C2          0.8369    1.2147    2.1478 C.ar      1 <0>        -0.0872
      3 C3          2.0223    0.5003    2.0992 C.ar      1 <0>        -0.0910
      4 C4          2.0731   -0.7262    1.4583 C.ar      1 <0>        -0.0916
      5 C5          0.9420   -1.2444    0.8638 C.ar      1 <0>        -0.0982
      6 C6         -0.2572   -0.5286    0.9087 C.ar      1 <0>         0.0081
      7 C7         -1.4716   -1.0769    0.2747 C.2       1 <0>         0.0154
      8 C8         -1.5591   -2.2813   -0.3867 C.2       1 <0>        -0.1906
      9 C9         -2.8781   -2.4102   -0.8277 C.2       1 <0>        -0.1886
     10 C10        -3.5504   -1.2726   -0.4164 C.2       1 <0>         0.0345
     11 O1         -2.6801   -0.4864    0.2512 O.3       1 <0>        -0.0934
     12 C11        -4.9119   -0.9867   -0.6500 C.2       1 <0>        -0.0120
     13 C12        -5.4211    0.2338   -0.3106 C.2       1 <0>        -0.1731
     14 C13        -4.7253    1.4595    0.1320 C.2       1 <0>         0.5199
     15 O2         -3.5099    1.5033    0.2477 O.2       1 <0>        -0.5001
     16 N1         -5.4844    2.5013    0.3944 N.2       1 <0>        -0.7026
     17 C14        -6.8017    2.4675    0.2728 C.2       1 <0>         0.4606
     18 S1         -7.1173    0.8002   -0.2844 S.3       1 <0>        -0.1274
     19 N2         -7.7057    3.4717    0.5119 N.2       1 <0>        -0.5794
     20 C15        -7.3009    4.8084    0.4412 C.ar      1 <0>         0.1813
     21 C16        -6.1465    5.1501   -0.2515 C.ar      1 <0>        -0.1536
     22 C17        -5.7493    6.4710   -0.3201 C.ar      1 <0>        -0.0882
     23 C18        -6.5000    7.4538    0.3010 C.ar      1 <0>        -0.0868
     24 C19        -7.6504    7.1161    0.9923 C.ar      1 <0>        -0.0918
     25 C20        -8.0556    5.7975    1.0589 C.ar      1 <0>        -0.1380
     26 Cl1        -5.9975    9.1131    0.2133 Cl        1 <0>        -0.1027
     27 Br1         3.5788    1.2033    2.9112 Br        1 <0>        -0.0565
     28 H1         -1.2263    1.2646    1.5991 H         1 <0>         0.1498
     29 H2          0.8041    2.1707    2.6492 H         1 <0>         0.1363
     30 H3          3.0009   -1.2781    1.4238 H         1 <0>         0.1357
     31 H4          0.9830   -2.2009    0.3640 H         1 <0>         0.1360
     32 H5         -0.7594   -2.9916   -0.5365 H         1 <0>         0.1496
     33 H6         -3.2933   -3.2382   -1.3831 H         1 <0>         0.1536
     34 H7         -5.5514   -1.7332   -1.0974 H         1 <0>         0.1581
     35 H8         -5.5599    4.3835   -0.7358 H         1 <0>         0.1349
     36 H9         -4.8518    6.7372   -0.8586 H         1 <0>         0.1185
     37 H10        -8.2342    7.8850    1.4764 H         1 <0>         0.1225
     38 H11        -8.9560    5.5352    1.5944 H         1 <0>         0.1249
@<TRIPOS>BOND
     1    1    6 ar
     2    1    2 ar
     3    1   28 1
     4    2    3 ar
     5    2   29 1
     6    3    4 ar
     7    3   27 1
     8    4    5 ar
     9    4   30 1
    10    5    6 ar
    11    5   31 1
    12    6    7 1
    13    7   11 1
    14    7    8 2
    15    8    9 1
    16    8   32 1
    17    9   10 2
    18    9   33 1
    19   10   11 1
    20   10   12 1
    21   12   13 2
    22   12   34 1
    23   13   18 1
    24   13   14 1
    25   14   15 2
    26   14   16 1
    27   16   17 2
    28   17   18 1
    29   17   19 1
    30   19   20 1
    31   20   25 ar
    32   20   21 ar
    33   21   22 ar
    34   21   35 1
    35   22   23 ar
    36   22   36 1
    37   23   24 ar
    38   23   26 1
    39   24   25 ar
    40   24   37 1
    41   25   38 1
@<TRIPOS>MOLECULE
ZINC59247638
   51    54     0     0     0
SMALL
USER_CHARGES

@<TRIPOS>ATOM
      1 C1         -0.0187    1.5258    0.0104 C.3       1 <0>        -0.1438
      2 C2          0.0021   -0.0041    0.0020 C.3       1 <0>         0.0632
      3 O1          0.6709   -0.4649   -1.1737 O.3       1 <0>        -0.3409
      4 C3          0.7760   -1.8004   -1.3350 C.2       1 <0>         0.5382
      5 C4          1.4479   -2.3437   -2.5145 C.2       1 <0>        -0.4218
      6 C5          1.5695   -3.6974   -2.7167 C.2       1 <0>         0.3430
      7 O2          1.0654   -4.5768   -1.8200 O.3       1 <0>        -0.5776
      8 C6          2.2292   -4.1524   -3.8765 C.2       1 <0>        -0.1019
      9 C7          2.4605   -5.4553   -4.2734 C.2       1 <0>        -0.0183
     10 C8          3.1437   -5.7137   -5.4764 C.2       1 <0>         0.0376
     11 C9          3.4358   -6.9666   -5.9923 C.2       1 <0>        -0.1832
     12 C10         4.1173   -6.7597   -7.1926 C.2       1 <0>        -0.1779
     13 C11         4.2184   -5.3972   -7.3693 C.2       1 <0>         0.0143
     14 O3          3.6227   -4.7844   -6.3301 O.3       1 <0>        -0.1398
     15 C12         4.8668   -4.7226   -8.5100 C.ar      1 <0>         0.0058
     16 C13         5.4429   -5.4765   -9.5363 C.ar      1 <0>        -0.0987
     17 C14         6.0474   -4.8399  -10.5997 C.ar      1 <0>        -0.1043
     18 C15         6.0850   -3.4574  -10.6527 C.ar      1 <0>        -0.1117
     19 C16         5.5165   -2.7034   -9.6398 C.ar      1 <0>        -0.0290
     20 C17         4.9029   -3.3275   -8.5721 C.ar      1 <0>        -0.0929
     21 Cl1         5.5692   -0.9699   -9.7163 Cl        1 <0>        -0.0621
     22 S1          2.6935   -2.6457   -4.7096 S.3       1 <0>        -0.0943
     23 C18         2.0223   -1.4694   -3.5478 C.2       1 <0>         0.3064
     24 N1          2.0387   -0.1489   -3.6015 N.2       1 <0>        -0.4872
     25 C19         2.6284    0.4839   -4.6573 C.ar      1 <0>         0.1230
     26 C20         3.8747    0.0565   -5.1257 C.ar      1 <0>        -0.1615
     27 C21         4.4639    0.7006   -6.1932 C.ar      1 <0>        -0.0930
     28 C22         3.8249    1.7675   -6.8006 C.ar      1 <0>        -0.1187
     29 C23         2.5912    2.1964   -6.3427 C.ar      1 <0>        -0.1043
     30 C24         1.9868    1.5592   -5.2797 C.ar      1 <0>        -0.1200
     31 C25         4.4760    2.4662   -7.9663 C.3       1 <0>        -0.1045
     32 O4          0.3116   -2.5525   -0.4989 O.2       1 <0>        -0.5307
     33 H1          1.0039    1.9031    0.0027 H         1 <0>         0.0616
     34 H2         -0.5459    1.8868   -0.8726 H         1 <0>         0.0617
     35 H3         -0.5289    1.8773    0.9072 H         1 <0>         0.0659
     36 H4          0.5293   -0.3651    0.8851 H         1 <0>         0.0525
     37 H5         -1.0205   -0.3814    0.0098 H         1 <0>         0.0527
     38 H6          2.1170   -6.2755   -3.6605 H         1 <0>         0.1739
     39 H7          3.1845   -7.9196   -5.5506 H         1 <0>         0.1580
     40 H8          4.4943   -7.5231   -7.8570 H         1 <0>         0.1527
     41 H9          5.4149   -6.5554   -9.4964 H         1 <0>         0.1343
     42 H10         6.4931   -5.4216  -11.3930 H         1 <0>         0.1366
     43 H11         6.5602   -2.9644  -11.4879 H         1 <0>         0.1341
     44 H12         4.4558   -2.7387   -7.7848 H         1 <0>         0.1434
     45 H13         4.3747   -0.7756   -4.6525 H         1 <0>         0.1239
     46 H14         5.4266    0.3720   -6.5559 H         1 <0>         0.1148
     47 H15         2.0989    3.0299   -6.8216 H         1 <0>         0.1172
     48 H16         1.0222    1.8924   -4.9261 H         1 <0>         0.1226
     49 H17         4.1677    1.9870   -8.8955 H         1 <0>         0.0613
     50 H18         4.1716    3.5127   -7.9789 H         1 <0>         0.0601
     51 H19         5.5598    2.4042   -7.8678 H         1 <0>         0.0591
@<TRIPOS>BOND
     1    1    2 1
     2    1   33 1
     3    1   34 1
     4    1   35 1
     5    2    3 1
     6    2   36 1
     7    2   37 1
     8    3    4 1
     9    4    5 1
    10    4   32 2
    11    5   23 1
    12    5    6 2
    13    6    7 1
    14    6    8 1
    15    8    9 2
    16    8   22 1
    17    9   10 1
    18    9   38 1
    19   10   14 1
    20   10   11 2
    21   11   12 1
    22   11   39 1
    23   12   13 2
    24   12   40 1
    25   13   14 1
    26   13   15 1
    27   15   20 ar
    28   15   16 ar
    29   16   17 ar
    30   16   41 1
    31   17   18 ar
    32   17   42 1
    33   18   19 ar
    34   18   43 1
    35   19   20 ar
    36   19   21 1
    37   20   44 1
    38   22   23 1
    39   23   24 2
    40   24   25 1
    41   25   30 ar
    42   25   26 ar
    43   26   27 ar
    44   26   45 1
    45   27   28 ar
    46   27   46 1
    47   28   29 ar
    48   28   31 1
    49   29   30 ar
    50   29   47 1
    51   30   48 1
    52   31   49 1
    53   31   50 1
    54   31   51 1
@<TRIPOS>MOLECULE
ZINC13058500
   40    43     0     0     0
SMALL
USER_CHARGES
3-[(5E)-5-[[5-(2-chlorophenyl)-2-furyl]methylene]-4-oxo-2-thioxo-thiazolidin-3-yl]benzoic acid
@<TRIPOS>ATOM
      1 C1         -3.5805   -2.0934    3.8359 C.ar      1 <0>        -0.1098
      2 C2         -3.4336   -3.4695    3.8666 C.ar      1 <0>        -0.0909
      3 C3         -2.2024   -4.0466    3.6125 C.ar      1 <0>        -0.1134
      4 C4         -1.1111   -3.2522    3.3214 C.ar      1 <0>        -0.0102
      5 C5         -1.2514   -1.8614    3.2940 C.ar      1 <0>        -0.0257
      6 C6         -2.4988   -1.2868    3.5514 C.ar      1 <0>        -0.0691
      7 C7         -0.0893   -1.0049    2.9889 C.2       1 <0>         0.0701
      8 C8          1.1465   -1.0834    3.5899 C.2       1 <0>        -0.1957
      9 C9          1.9468   -0.0966    3.0085 C.2       1 <0>        -0.1258
     10 C10         1.1643    0.5507    2.0689 C.2       1 <0>        -0.0431
     11 O1         -0.0619   -0.0125    2.0807 O.3       1 <0>        -0.0945
     12 C11         1.5758    1.6198    1.2446 C.2       1 <0>         0.1145
     13 C12         0.7512    2.0770    0.2573 C.2       1 <0>        -0.2453
     14 C13        -0.5050    1.5639   -0.1871 C.2       1 <0>         0.5221
     15 O2         -0.9970    0.5761    0.3284 O.2       1 <0>        -0.4159
     16 N1         -1.1154    2.1899   -1.1783 N.am      1 <0>        -0.4691
     17 C14        -0.5719    3.2892   -1.7463 C.2       1 <0>         0.2854
     18 S1         -1.1839    4.2505   -3.0240 S.2       1 <0>        -0.3163
     19 S2          0.9502    3.4809   -0.8312 S.3       1 <0>         0.0540
     20 C15        -2.3473    1.7099   -1.6434 C.ar      1 <0>         0.0685
     21 C16        -2.3970    0.9070   -2.7767 C.ar      1 <0>        -0.0880
     22 C17        -3.6086    0.4262   -3.2365 C.ar      1 <0>        -0.1271
     23 C18        -4.7786    0.7494   -2.5798 C.ar      1 <0>        -0.0540
     24 C19        -4.7401    1.5600   -1.4436 C.ar      1 <0>        -0.1024
     25 C20        -3.5159    2.0404   -0.9765 C.ar      1 <0>        -0.0479
     26 C21        -5.9908    1.9082   -0.7385 C.2       1 <0>         0.4926
     27 O3         -5.9549    2.6138    0.2495 O.co2     1 <0>        -0.6272
     28 Cl1         0.4318   -3.9781    2.9957 Cl        1 <0>        -0.0599
     29 H1         -4.5450   -1.6502    4.0350 H         1 <0>         0.1398
     30 H2         -4.2847   -4.0958    4.0897 H         1 <0>         0.1382
     31 H3         -2.0953   -5.1209    3.6378 H         1 <0>         0.1398
     32 H4         -2.6155   -0.2134    3.5280 H         1 <0>         0.1385
     33 H5          1.4417   -1.7765    4.3638 H         1 <0>         0.1576
     34 H6          2.9778    0.1193    3.2467 H         1 <0>         0.1635
     35 H7          2.5430    2.0762    1.3948 H         1 <0>         0.1808
     36 H8         -1.4852    0.6543   -3.2975 H         1 <0>         0.1171
     37 H9         -3.6403   -0.2006   -4.1154 H         1 <0>         0.1292
     38 H10        -5.7239    0.3757   -2.9449 H         1 <0>         0.1400
     39 H11        -3.4797    2.6681   -0.0984 H         1 <0>         0.1274
     40 O4         -7.1712    1.4431   -1.1914 O.co2     1 <0>        -0.7477
@<TRIPOS>BOND
     1    1    6 ar
     2    1    2 ar
     3    1   29 1
     4    2    3 ar
     5    2   30 1
     6    3    4 ar
     7    3   31 1
     8    4    5 ar
     9    4   28 1
    10    5    6 ar
    11    5    7 1
    12    6   32 1
    13    7   11 1
    14    7    8 2
    15    8    9 1
    16    8   33 1
    17    9   10 2
    18    9   34 1
    19   10   11 1
    20   10   12 1
    21   12   13 2
    22   12   35 1
    23   13   19 1
    24   13   14 1
    25   14   15 2
    26   14   16 am
    27   16   17 1
    28   16   20 1
    29   17   18 2
    30   17   19 1
    31   20   25 ar
    32   20   21 ar
    33   21   22 ar
    34   21   36 1
    35   22   23 ar
    36   22   37 1
    37   23   24 ar
    38   23   38 1
    39   24   25 ar
    40   24   26 1
    41   25   39 1
    42   26   27 2
    43   26   40 1
@<TRIPOS>MOLECULE
ZINC28781600
   41    43     0     0     0
SMALL
USER_CHARGES
2-bromo-N-[4-(2-methoxyphenoxy)phenyl]benzenesulfonamide
@<TRIPOS>ATOM
      1 C1          2.2781    4.4082    4.2068 C.3       1 <0>         0.0228
      2 O1          1.0054    3.7869    4.0162 O.3       1 <0>        -0.2978
      3 C2          0.3443    4.0748    2.8632 C.ar      1 <0>         0.1152
      4 C3          0.9084    4.9362    1.9359 C.ar      1 <0>        -0.2027
      5 C4          0.2353    5.2274    0.7641 C.ar      1 <0>        -0.0874
      6 C5         -1.0009    4.6610    0.5140 C.ar      1 <0>        -0.1467
      7 C6         -1.5695    3.8008    1.4347 C.ar      1 <0>        -0.0910
      8 C7         -0.8977    3.5004    2.6092 C.ar      1 <0>         0.0723
      9 O2         -1.4529    2.6501    3.5134 O.3       1 <0>        -0.2603
     10 C8         -2.0919    3.1877    4.5865 C.ar      1 <0>         0.0491
     11 C9         -2.2576    4.5620    4.6779 C.ar      1 <0>        -0.1590
     12 C10        -2.9107    5.1083    5.7651 C.ar      1 <0>        -0.1810
     13 C11        -3.3929    4.2824    6.7720 C.ar      1 <0>         0.2026
     14 C12        -3.2221    2.9071    6.6824 C.ar      1 <0>        -0.1237
     15 C13        -2.5730    2.3619    5.5922 C.ar      1 <0>        -0.1219
     16 N1         -4.0509    4.8355    7.8760 N.2       1 <0>        -1.0435
     17 S1         -3.4196    6.1647    8.6357 S.o2      1 <0>         2.5662
     18 O3         -3.1466    7.1211    7.6208 O.2       1 <0>        -1.0420
     19 O4         -4.2716    6.4455    9.7378 O.2       1 <0>        -0.9808
     20 C14        -1.8632    5.6887    9.3109 C.ar      1 <0>        -0.6293
     21 C15        -0.6998    6.2707    8.8435 C.ar      1 <0>        -0.0311
     22 C16         0.5208    5.9005    9.3761 C.ar      1 <0>        -0.1351
     23 C17         0.5795    4.9410   10.3698 C.ar      1 <0>        -0.0880
     24 C18        -0.5827    4.3548   10.8340 C.ar      1 <0>        -0.1216
     25 C19        -1.8050    4.7285   10.3046 C.ar      1 <0>         0.0004
     26 Br1        -3.3955    3.9262   10.9390 Br        1 <0>        -0.0204
     27 H1          2.6999    4.0914    5.1721 H         1 <0>         0.1011
     28 H2          2.1570    5.5015    4.2006 H         1 <0>         0.0560
     29 H3          2.9571    4.1099    3.3944 H         1 <0>         0.0537
     30 H4          1.8740    5.3798    2.1285 H         1 <0>         0.1307
     31 H5          0.6762    5.8987    0.0420 H         1 <0>         0.1258
     32 H6         -1.5234    4.8908   -0.4028 H         1 <0>         0.1284
     33 H7         -2.5353    3.3597    1.2369 H         1 <0>         0.1371
     34 H8         -1.8789    5.2046    3.8968 H         1 <0>         0.1044
     35 H9         -3.0435    6.1779    5.8339 H         1 <0>         0.1417
     36 H10        -3.5971    2.2641    7.4649 H         1 <0>         0.1208
     37 H11        -2.4400    1.2924    5.5224 H         1 <0>         0.1137
     38 H12        -0.7448    7.0173    8.0644 H         1 <0>         0.1388
     39 H13         1.4293    6.3582    9.0132 H         1 <0>         0.1253
     40 H14         1.5337    4.6493   10.7830 H         1 <0>         0.1270
     41 H15        -0.5367    3.6047   11.6098 H         1 <0>         0.1303
@<TRIPOS>BOND
     1    1    2 1
     2    1   27 1
     3    1   28 1
     4    1   29 1
     5    2    3 1
     6    3    8 ar
     7    3    4 ar
     8    4    5 ar
     9    4   30 1
    10    5    6 ar
    11    5   31 1
    12    6    7 ar
    13    6   32 1
    14    7    8 ar
    15    7   33 1
    16    8    9 1
    17    9   10 1
    18   10   15 ar
    19   10   11 ar
    20   11   12 ar
    21   11   34 1
    22   12   13 ar
    23   12   35 1
    24   13   14 ar
    25   13   16 1
    26   14   15 ar
    27   14   36 1
    28   15   37 1
    29   16   17 1
    30   17   18 2
    31   17   19 2
    32   17   20 1
    33   20   25 ar
    34   20   21 ar
    35   21   22 ar
    36   21   38 1
    37   22   23 ar
    38   22   39 1
    39   23   24 ar
    40   23   40 1
    41   24   25 ar
    42   24   41 1
    43   25   26 1
@<TRIPOS>MOLECULE
ZINC34930832
   48    52     0     0     0
SMALL
USER_CHARGES

@<TRIPOS>ATOM
      1 C1          1.5791    1.0126   -1.7304 C.3       1 <0>        -0.1074
      2 C2          1.4347   -0.4634   -1.4625 C.ar      1 <0>        -0.0864
      3 C3          1.6939   -1.3864   -2.4657 C.ar      1 <0>        -0.1061
      4 C4          1.5697   -2.7336   -2.2488 C.ar      1 <0>        -0.0717
      5 C5          1.1708   -3.2283   -0.9852 C.ar      1 <0>         0.1139
      6 C6          0.9159   -2.2594    0.0122 C.ar      1 <0>        -0.1720
      7 C7          1.0481   -0.9118   -0.2130 C.ar      1 <0>        -0.0563
      8 S1          0.4566   -3.2622    1.4051 S.3       1 <0>         0.0475
      9 C8          0.6260   -4.8506    0.6036 C.2       1 <0>         0.4096
     10 N1          1.0022   -4.5139   -0.6085 N.2       1 <0>        -0.5466
     11 N2          0.4142   -6.1138    1.1270 N.am      1 <0>        -0.5065
     12 C9          0.5783   -7.3841    0.4106 C.3       1 <0>         0.2698
     13 H1         -0.0991   -7.4236   -0.4424 H         1 <0>         0.0925
     14 C10         0.2326   -8.4729    1.3994 C.2       1 <0>        -0.4841
     15 C11         0.2480   -9.9171    1.1505 C.2       1 <0>         0.5065
     16 C12        -0.7062  -10.5120    0.1903 C.ar      1 <0>        -0.1358
     17 C13        -1.6557   -9.7083   -0.4442 C.ar      1 <0>        -0.0613
     18 C14        -2.5425  -10.2697   -1.3391 C.ar      1 <0>        -0.1369
     19 C15        -2.4928  -11.6261   -1.6087 C.ar      1 <0>        -0.1047
     20 C16        -1.5544  -12.4284   -0.9835 C.ar      1 <0>        -0.1378
     21 C17        -0.6582  -11.8792   -0.0904 C.ar      1 <0>        -0.0727
     22 O1          1.0460  -10.6265    1.7338 O.2       1 <0>        -0.4657
     23 C18        -0.0939   -7.8567    2.5603 C.2       1 <0>         0.2719
     24 O2         -0.4657   -8.4808    3.7015 O.3       1 <0>        -0.6322
     25 C19         0.0269   -6.3949    2.3844 C.2       1 <0>         0.5142
     26 O3         -0.1931   -5.5683    3.2473 O.2       1 <0>        -0.4824
     27 C20         2.0044   -7.5377   -0.0517 C.ar      1 <0>        -0.0955
     28 C21         3.0255   -6.9088    0.6354 C.ar      1 <0>        -0.0724
     29 C22         4.3336   -7.0495    0.2116 C.ar      1 <0>        -0.1269
     30 C23         4.6223   -7.8195   -0.8999 C.ar      1 <0>        -0.0986
     31 C24         3.6032   -8.4496   -1.5882 C.ar      1 <0>        -0.1535
     32 C25         2.2928   -8.3136   -1.1614 C.ar      1 <0>         0.1112
     33 F1          1.2961   -8.9330   -1.8308 F         1 <0>        -0.1340
     34 H2          2.5992    1.3245   -1.5059 H         1 <0>         0.0707
     35 H3          1.3598    1.2148   -2.7788 H         1 <0>         0.0677
     36 H4          0.8829    1.5661   -1.1003 H         1 <0>         0.0665
     37 H5          2.0001   -1.0349   -3.4399 H         1 <0>         0.1286
     38 H6          1.7785   -3.4253   -3.0515 H         1 <0>         0.1297
     39 H7          0.8470   -0.2061    0.5794 H         1 <0>         0.1286
     40 H8         -1.6958   -8.6496   -0.2344 H         1 <0>         0.1288
     41 H9         -3.2775   -9.6493   -1.8303 H         1 <0>         0.1216
     42 H10        -3.1897  -12.0607   -2.3101 H         1 <0>         0.1187
     43 H11        -1.5210  -13.4863   -1.1984 H         1 <0>         0.1209
     44 H12         0.0763  -12.5057    0.3938 H         1 <0>         0.1282
     45 H13         2.8012   -6.3068    1.5036 H         1 <0>         0.1171
     46 H14         5.1308   -6.5574    0.7489 H         1 <0>         0.1240
     47 H15         5.6447   -7.9282   -1.2306 H         1 <0>         0.1276
     48 H16         3.8289   -9.0508   -2.4566 H         1 <0>         0.1318
@<TRIPOS>BOND
     1    1    2 1
     2    1   34 1
     3    1   35 1
     4    1   36 1
     5    2    7 ar
     6    2    3 ar
     7    3    4 ar
     8    3   37 1
     9    4    5 ar
    10    4   38 1
    11    5   10 1
    12    5    6 ar
    13    6    7 ar
    14    6    8 1
    15    7   39 1
    16    8    9 1
    17    9   10 2
    18    9   11 1
    19   11   25 am
    20   11   12 1
    21   12   14 1
    22   12   27 1
    23   12   13 1
    24   14   23 2
    25   14   15 1
    26   15   22 2
    27   15   16 1
    28   16   21 ar
    29   16   17 ar
    30   17   18 ar
    31   17   40 1
    32   18   19 ar
    33   18   41 1
    34   19   20 ar
    35   19   42 1
    36   20   21 ar
    37   20   43 1
    38   21   44 1
    39   23   25 1
    40   23   24 1
    41   25   26 2
    42   27   32 ar
    43   27   28 ar
    44   28   29 ar
    45   28   45 1
    46   29   30 ar
    47   29   46 1
    48   30   31 ar
    49   30   47 1
    50   31   32 ar
    51   31   48 1
    52   32   33 1
@<TRIPOS>MOLECULE
ZINC40030366
   54    57     0     0     0
SMALL
USER_CHARGES

@<TRIPOS>ATOM
      1 C1          0.1591    1.5574    0.0557 C.3       1 <0>        -0.1161
      2 C2          0.1585    0.0505    0.0701 C.ar      1 <0>        -0.0794
      3 C3          0.1023   -0.6521   -1.1191 C.ar      1 <0>        -0.1253
      4 C4          0.1017   -2.0344   -1.1059 C.ar      1 <0>        -0.0907
      5 C5          0.1578   -2.7141    0.0965 C.ar      1 <0>        -0.0988
      6 C6          0.2149   -2.0116    1.2856 C.ar      1 <0>        -0.0901
      7 C7          0.2198   -0.6293    1.2722 C.ar      1 <0>        -0.1246
      8 C8          0.1562   -4.2210    0.1109 C.3       1 <0>         0.1023
      9 O1          1.5014   -4.6994    0.0516 O.3       1 <0>        -0.3092
     10 C9          1.6778   -6.0470    0.0560 C.ar      1 <0>         0.1109
     11 C10         0.5761   -6.8910    0.1107 C.ar      1 <0>        -0.1951
     12 C11         0.7493   -8.2629    0.1160 C.ar      1 <0>        -0.0975
     13 C12         2.0181   -8.8028    0.0670 C.ar      1 <0>        -0.1017
     14 C13         3.1319   -7.9623    0.0114 C.ar      1 <0>        -0.0963
     15 C14         2.9550   -6.5776    0.0004 C.ar      1 <0>        -0.1038
     16 C15         4.4933   -8.5370   -0.0412 C.2       1 <0>         0.5056
     17 O2          5.4581   -7.8056   -0.1617 O.2       1 <0>        -0.4653
     18 C16         4.6805   -9.9878    0.0518 C.2       1 <0>        -0.5048
     19 C17         5.2749  -10.6619    1.0641 C.2       1 <0>         0.2692
     20 C18         5.2541  -12.1088    0.7619 C.2       1 <0>         0.5141
     21 O3          5.7114  -12.9773    1.4779 O.2       1 <0>        -0.5291
     22 N1          4.6537  -12.3217   -0.4231 N.am      1 <0>        -0.6115
     23 C19         4.2415  -11.0198   -0.9606 C.3       1 <0>         0.3052
     24 H1          3.1588  -10.9881   -1.0827 H         1 <0>         0.0868
     25 C20         4.9202  -10.7700   -2.2827 C.2       1 <0>        -0.1077
     26 C21         4.4536  -10.1093   -3.3704 C.2       1 <0>        -0.1780
     27 C22         5.2614  -10.0016   -4.4869 C.2       1 <0>        -0.1463
     28 C23         6.4962  -10.5600   -4.4612 C.2       1 <0>        -0.2029
     29 S1          6.5504  -11.2608   -2.8201 S.3       1 <0>         0.0502
     30 C24         4.4439  -13.6235   -1.0616 C.3       1 <0>         0.1588
     31 C25         3.1176  -14.1897   -0.6240 C.2       1 <0>        -0.1599
     32 C26         2.2291  -14.5435   -1.5192 C.2       1 <0>        -0.1882
     33 O4          5.8043  -10.1007    2.1753 O.3       1 <0>        -0.6475
     34 H2          1.1856    1.9198   -0.0006 H         1 <0>         0.0718
     35 H3         -0.3997    1.9127   -0.8101 H         1 <0>         0.0663
     36 H4         -0.3081    1.9296    0.9674 H         1 <0>         0.0664
     37 H5          0.0585   -0.1210   -2.0585 H         1 <0>         0.1236
     38 H6          0.0571   -2.5832   -2.0350 H         1 <0>         0.1246
     39 H7          0.2583   -2.5426    2.2250 H         1 <0>         0.1252
     40 H8          0.2681   -0.0804    2.2011 H         1 <0>         0.1240
     41 H9         -0.3153   -4.5751    1.0277 H         1 <0>         0.0696
     42 H10        -0.3997   -4.5920   -0.7502 H         1 <0>         0.0691
     43 H11        -0.4195   -6.4743    0.1495 H         1 <0>         0.1242
     44 H12        -0.1114   -8.9139    0.1589 H         1 <0>         0.1255
     45 H13         2.1497   -9.8747    0.0720 H         1 <0>         0.1354
     46 H14         3.8123   -5.9223   -0.0465 H         1 <0>         0.1369
     47 H15         3.4653   -9.6737   -3.3649 H         1 <0>         0.1282
     48 H16         4.9136   -9.4807   -5.3668 H         1 <0>         0.1252
     49 H17         7.2526  -10.5738   -5.2320 H         1 <0>         0.1778
     50 H18         4.4474  -13.5017   -2.1448 H         1 <0>         0.0805
     51 H19         5.2436  -14.3043   -0.7700 H         1 <0>         0.0887
     52 H20         2.8997  -14.3037    0.4276 H         1 <0>         0.1108
     53 H21         2.4470  -14.4295   -2.5709 H         1 <0>         0.0960
     54 H22         1.2786  -14.9493   -1.2057 H         1 <0>         0.0968
@<TRIPOS>BOND
     1    1    2 1
     2    1   34 1
     3    1   35 1
     4    1   36 1
     5    2    7 ar
     6    2    3 ar
     7    3    4 ar
     8    3   37 1
     9    4    5 ar
    10    4   38 1
    11    5    6 ar
    12    5    8 1
    13    6    7 ar
    14    6   39 1
    15    7   40 1
    16    8    9 1
    17    8   41 1
    18    8   42 1
    19    9   10 1
    20   10   15 ar
    21   10   11 ar
    22   11   12 ar
    23   11   43 1
    24   12   13 ar
    25   12   44 1
    26   13   14 ar
    27   13   45 1
    28   14   15 ar
    29   14   16 1
    30   15   46 1
    31   16   17 2
    32   16   18 1
    33   18   23 1
    34   18   19 2
    35   19   20 1
    36   19   33 1
    37   20   21 2
    38   20   22 am
    39   22   23 1
    40   22   30 1
    41   23   24 1
    42   23   25 1
    43   25   29 1
    44   25   26 2
    45   26   27 1
    46   26   47 1
    47   27   28 2
    48   27   48 1
    49   28   29 1
    50   28   49 1
    51   30   31 1
    52   30   50 1
    53   30   51 1
    54   31   32 2
    55   31   52 1
    56   32   53 1
    57   32   54 1
@<TRIPOS>MOLECULE
ZINC57372599
   47    50     0     0     0
SMALL
USER_CHARGES

@<TRIPOS>ATOM
      1 C1          4.1811   -4.1064    2.6133 C.ar      1 <0>        -0.1480
      2 C2          4.6470   -3.7387    1.3640 C.ar      1 <0>        -0.1026
      3 C3          4.6772   -2.4061    1.0057 C.ar      1 <0>        -0.1526
      4 C4          4.2391   -1.4350    1.8993 C.ar      1 <0>         0.1660
      5 C5          3.7693   -1.8043    3.1497 C.ar      1 <0>        -0.1224
      6 C6          3.7444   -3.1435    3.5021 C.ar      1 <0>        -0.1020
      7 C7          3.2770   -0.7812    4.1390 C.3       1 <0>        -0.0754
      8 C8          3.8341    0.6015    3.8014 C.3       1 <0>        -0.1390
      9 C9          3.5539    0.9020    2.3232 C.3       1 <0>         0.0837
     10 N1          4.2826   -0.0876    1.5180 N.am      1 <0>        -0.5516
     11 C10         4.9816    0.2946    0.4308 C.2       1 <0>         0.5643
     12 O1          5.6769   -0.5100   -0.1585 O.2       1 <0>        -0.5098
     13 C11         4.9030    1.6914   -0.0447 C.ar      1 <0>        -0.0843
     14 C12         3.7630    2.4558    0.2128 C.ar      1 <0>        -0.1970
     15 C13         3.6913    3.7594   -0.2324 C.ar      1 <0>        -0.0747
     16 C14         4.7466    4.3145   -0.9344 C.ar      1 <0>        -0.0699
     17 C15         5.8866    3.5612   -1.1959 C.ar      1 <0>         0.2822
     18 C16         5.9698    2.2525   -0.7475 C.ar      1 <0>        -0.1857
     19 N2          6.9499    4.1258   -1.9062 N.2       1 <0>        -1.0679
     20 S1          8.3772    3.2995   -2.0557 S.o2      1 <0>         2.6030
     21 O2          8.8040    2.9843   -0.7374 O.2       1 <0>        -1.0257
     22 O3          8.1680    2.3035   -3.0473 O.2       1 <0>        -1.0163
     23 C17         9.5636    4.4239   -2.7137 C.ar      1 <0>        -0.6279
     24 C18         9.7189    4.5415   -4.0823 C.ar      1 <0>         0.0059
     25 C19        10.6487    5.4233   -4.5996 C.ar      1 <0>        -0.1789
     26 C20        11.4250    6.1893   -3.7464 C.ar      1 <0>         0.1332
     27 C21        11.2686    6.0707   -2.3758 C.ar      1 <0>        -0.1791
     28 C22        10.3344    5.1920   -1.8610 C.ar      1 <0>         0.0060
     29 F1         12.3346    7.0514   -4.2510 F         1 <0>        -0.1393
     30 Cl1         4.6477    5.9560   -1.4908 Cl        1 <0>        -0.0794
     31 H1          4.1545   -5.1493    2.8928 H         1 <0>         0.1173
     32 H2          4.9870   -4.4931    0.6700 H         1 <0>         0.1220
     33 H3          5.0417   -2.1174    0.0309 H         1 <0>         0.1668
     34 H4          3.3822   -3.4363    4.4766 H         1 <0>         0.1204
     35 H5          2.1879   -0.7472    4.1095 H         1 <0>         0.0751
     36 H6          3.6005   -1.0646    5.1406 H         1 <0>         0.0765
     37 H7          3.3494    1.3527    4.4250 H         1 <0>         0.0857
     38 H8          4.9094    0.6153    3.9794 H         1 <0>         0.0732
     39 H9          2.4847    0.8227    2.1266 H         1 <0>         0.0777
     40 H10         3.9016    1.9056    2.0782 H         1 <0>         0.1220
     41 H11         2.9371    2.0260    0.7603 H         1 <0>         0.1308
     42 H12         2.8084    4.3486   -0.0328 H         1 <0>         0.1249
     43 H13         6.8557    1.6673   -0.9455 H         1 <0>         0.1189
     44 H14         9.1135    3.9437   -4.7476 H         1 <0>         0.1475
     45 H15        10.7701    5.5148   -5.6688 H         1 <0>         0.1398
     46 H16        11.8738    6.6674   -1.7094 H         1 <0>         0.1396
     47 H17        10.2092    5.1025   -0.7920 H         1 <0>         0.1471
@<TRIPOS>BOND
     1    1    6 ar
     2    1    2 ar
     3    1   31 1
     4    2    3 ar
     5    2   32 1
     6    3    4 ar
     7    3   33 1
     8    4   10 1
     9    4    5 ar
    10    5    6 ar
    11    5    7 1
    12    6   34 1
    13    7    8 1
    14    7   35 1
    15    7   36 1
    16    8    9 1
    17    8   37 1
    18    8   38 1
    19    9   10 1
    20    9   39 1
    21    9   40 1
    22   10   11 am
    23   11   12 2
    24   11   13 1
    25   13   18 ar
    26   13   14 ar
    27   14   15 ar
    28   14   41 1
    29   15   16 ar
    30   15   42 1
    31   16   17 ar
    32   16   30 1
    33   17   18 ar
    34   17   19 1
    35   18   43 1
    36   19   20 1
    37   20   21 2
    38   20   22 2
    39   20   23 1
    40   23   28 ar
    41   23   24 ar
    42   24   25 ar
    43   24   44 1
    44   25   26 ar
    45   25   45 1
    46   26   27 ar
    47   26   29 1
    48   27   28 ar
    49   27   46 1
    50   28   47 1
@<TRIPOS>MOLECULE
ZINC63653337
   39    41     0     0     0
SMALL
USER_CHARGES

@<TRIPOS>ATOM
      1 C1         -0.0184    1.5028    0.0103 C.3       1 <0>        -0.0936
      2 C2          0.0021   -0.0041    0.0020 C.2       1 <0>        -0.1084
      3 C3          0.0091   -0.8207   -1.0538 C.2       1 <0>        -0.0533
      4 N1          0.0281   -2.1135   -0.6607 N.2       1 <0>        -0.1490
      5 N2          0.0351   -2.2769    0.5619 N.2       1 <0>        -0.1499
      6 C4          0.0262   -0.9460    1.1928 C.3       1 <0>         0.0535
      7 H1         -0.8670   -0.8174    1.8042 H         1 <0>         0.1617
      8 C5          1.2715   -0.7344    2.0146 C.2       1 <0>        -0.1280
      9 C6          1.4246   -0.0413    3.1694 C.2       1 <0>        -0.1557
     10 C7          2.6755    0.0182    3.7546 C.2       1 <0>        -0.0427
     11 C8          3.7120   -0.6182    3.1565 C.2       1 <0>        -0.6639
     12 S1          2.9263   -1.3381    1.7241 S.3       1 <0>         0.1841
     13 S2          5.3964   -0.7155    3.6644 S.o2      1 <0>         2.6323
     14 O1          6.1588   -0.9795    2.4946 O.2       1 <0>        -1.0178
     15 O2          5.6371    0.4147    4.4915 O.2       1 <0>        -1.0166
     16 N3          5.5393   -2.0505    4.6337 N.2       1 <0>        -1.0833
     17 C9          6.7777   -2.3815    5.1884 C.ar      1 <0>         0.2785
     18 C10         7.8895   -1.5886    4.9325 C.ar      1 <0>        -0.2386
     19 C11         9.1122   -1.9185    5.4828 C.ar      1 <0>        -0.0648
     20 C12         9.2309   -3.0371    6.2875 C.ar      1 <0>        -0.1826
     21 C13         8.1266   -3.8286    6.5438 C.ar      1 <0>        -0.1419
     22 C14         6.8992   -3.5009    6.0016 C.ar      1 <0>        -0.1304
     23 C15         8.2610   -5.0470    7.4205 C.3       1 <0>         0.5090
     24 F1          9.5864   -5.1672    7.8518 F         1 <0>        -0.1846
     25 F2          7.4193   -4.9180    8.5304 F         1 <0>        -0.1824
     26 F3          7.9022   -6.1868    6.6930 F         1 <0>        -0.1820
     27 C16        -0.0027   -0.3630   -2.4896 C.3       1 <0>        -0.0829
     28 H2          1.0042    1.8801    0.0026 H         1 <0>         0.0881
     29 H3         -0.5455    1.8639   -0.8728 H         1 <0>         0.0815
     30 H4         -0.5286    1.8543    0.9071 H         1 <0>         0.0782
     31 H5          0.5820    0.4573    3.6252 H         1 <0>         0.1400
     32 H6          2.8247    0.5640    4.6745 H         1 <0>         0.1489
     33 H7          7.7976   -0.7155    4.3036 H         1 <0>         0.1045
     34 H8          9.9768   -1.3026    5.2843 H         1 <0>         0.1155
     35 H9         10.1885   -3.2931    6.7164 H         1 <0>         0.1189
     36 H10         6.0360   -4.1169    6.2061 H         1 <0>         0.1242
     37 H11         1.0220   -0.2388   -2.8397 H         1 <0>         0.0797
     38 H12        -0.5089   -1.1075   -3.1041 H         1 <0>         0.0783
     39 H13        -0.5298    0.5882   -2.5634 H         1 <0>         0.0753
@<TRIPOS>BOND
     1    1    2 1
     2    1   28 1
     3    1   29 1
     4    1   30 1
     5    2    6 1
     6    2    3 2
     7    3    4 1
     8    3   27 1
     9    4    5 2
    10    5    6 1
    11    6    7 1
    12    6    8 1
    13    8   12 1
    14    8    9 2
    15    9   10 1
    16    9   31 1
    17   10   11 2
    18   10   32 1
    19   11   12 1
    20   11   13 1
    21   13   14 2
    22   13   15 2
    23   13   16 1
    24   16   17 1
    25   17   22 ar
    26   17   18 ar
    27   18   19 ar
    28   18   33 1
    29   19   20 ar
    30   19   34 1
    31   20   21 ar
    32   20   35 1
    33   21   22 ar
    34   21   23 1
    35   22   36 1
    36   23   24 1
    37   23   25 1
    38   23   26 1
    39   27   37 1
    40   27   38 1
    41   27   39 1
@<TRIPOS>MOLECULE
ZINC05101663
   58    61     0     0     0
SMALL
USER_CHARGES
6-[(2,3-dimethylphenyl)carbamoyl]-2,5-diphenyl-cyclohex-3-ene-1-carboxylic acid
@<TRIPOS>ATOM
      1 C1          0.3442   10.9323    2.3541 C.3       1 <0>        -0.1102
      2 C2          0.3314    9.8962    1.2598 C.ar      1 <0>        -0.0745
      3 C3          0.1590   10.2839   -0.0565 C.ar      1 <0>        -0.1450
      4 C4          0.1458    9.3363   -1.0633 C.ar      1 <0>        -0.1009
      5 C5          0.3057    7.9989   -0.7571 C.ar      1 <0>        -0.1333
      6 C6          0.4795    7.6064    0.5634 C.ar      1 <0>         0.1627
      7 C7          0.4861    8.5602    1.5731 C.ar      1 <0>        -0.1254
      8 C8          0.6677    8.1381    3.0083 C.3       1 <0>        -0.1108
      9 N1          0.6418    6.2525    0.8769 N.am      1 <0>        -0.6773
     10 C9          0.0933    5.3076    0.0878 C.2       1 <0>         0.5055
     11 O1         -0.4829    5.6275   -0.9304 O.2       1 <0>        -0.4694
     12 C10         0.1958    3.8536    0.4705 C.3       1 <0>        -0.0753
     13 H1         -0.2880    3.6900    1.4334 H         1 <0>         0.0886
     14 C11         1.6686    3.4477    0.5593 C.3       1 <0>        -0.0084
     15 H2          2.1882    3.7821   -0.3386 H         1 <0>         0.1147
     16 C12         1.7876    1.9564    0.6767 C.2       1 <0>        -0.1063
     17 C13         0.8369    1.1278    0.3848 C.2       1 <0>        -0.1351
     18 C14        -0.5186    1.5429   -0.1075 C.3       1 <0>        -0.0004
     19 H3         -1.2394    1.4601    0.7059 H         1 <0>         0.0735
     20 C15        -0.4818    2.9895   -0.6005 C.3       1 <0>        -0.1105
     21 H4         -1.4979    3.3459   -0.7699 H         1 <0>         0.0772
     22 C16         0.3057    3.0625   -1.8833 C.2       1 <0>         0.4844
     23 O2          1.4203    2.5990   -1.9351 O.co2     1 <0>        -0.6378
     24 C17        -0.9384    0.6381   -1.2372 C.ar      1 <0>        -0.0635
     25 C18        -2.2613    0.2569   -1.3623 C.ar      1 <0>        -0.1193
     26 C19        -2.6473   -0.5688   -2.4016 C.ar      1 <0>        -0.1327
     27 C20        -1.7085   -1.0225   -3.3092 C.ar      1 <0>        -0.1301
     28 C21        -0.3848   -0.6455   -3.1810 C.ar      1 <0>        -0.1267
     29 C22         0.0003    0.1848   -2.1451 C.ar      1 <0>        -0.0810
     30 C23         2.2932    4.0953    1.7682 C.ar      1 <0>        -0.0777
     31 C24         1.8005    3.8223    3.0306 C.ar      1 <0>        -0.1161
     32 C25         2.3763    4.4130    4.1399 C.ar      1 <0>        -0.1204
     33 C26         3.4386    5.2841    3.9860 C.ar      1 <0>        -0.1276
     34 C27         3.9282    5.5608    2.7233 C.ar      1 <0>        -0.1184
     35 C28         3.3552    4.9667    1.6143 C.ar      1 <0>        -0.1136
     36 H5         -0.6703   11.0843    2.7224 H         1 <0>         0.0666
     37 H6          0.9799   10.5902    3.1709 H         1 <0>         0.0653
     38 H7          0.7325   11.8717    1.9605 H         1 <0>         0.0633
     39 H8          0.0341   11.3290   -0.2985 H         1 <0>         0.1165
     40 H9          0.0106    9.6422   -2.0902 H         1 <0>         0.1219
     41 H10         0.2953    7.2592   -1.5440 H         1 <0>         0.1533
     42 H11         1.7296    8.1349    3.2545 H         1 <0>         0.0670
     43 H12         0.1454    8.8371    3.6615 H         1 <0>         0.0689
     44 H13         0.2596    7.1369    3.1470 H         1 <0>         0.0599
     45 H14         1.1492    5.9939    1.6622 H         1 <0>         0.4070
     46 H15         2.7248    1.5491    1.0261 H         1 <0>         0.0994
     47 H16         1.0329    0.0718    0.4984 H         1 <0>         0.0993
     48 H17        -2.9939    0.6075   -0.6504 H         1 <0>         0.1134
     49 H18        -3.6816   -0.8630   -2.5019 H         1 <0>         0.1128
     50 H19        -2.0094   -1.6712   -4.1185 H         1 <0>         0.1116
     51 H20         0.3487   -0.9999   -3.8901 H         1 <0>         0.1138
     52 H21         1.0346    0.4790   -2.0447 H         1 <0>         0.1430
     53 H22         0.9679    3.1449    3.1505 H         1 <0>         0.1241
     54 H23         1.9940    4.1965    5.1265 H         1 <0>         0.1203
     55 H24         3.8862    5.7481    4.8524 H         1 <0>         0.1185
     56 H25         4.7581    6.2413    2.6030 H         1 <0>         0.1202
     57 H26         3.7375    5.1832    0.6277 H         1 <0>         0.1233
     58 O3         -0.2312    3.6424   -2.9683 O.co2     1 <0>        -0.7480
@<TRIPOS>BOND
     1    1    2 1
     2    1   36 1
     3    1   37 1
     4    1   38 1
     5    2    7 ar
     6    2    3 ar
     7    3    4 ar
     8    3   39 1
     9    4    5 ar
    10    4   40 1
    11    5    6 ar
    12    5   41 1
    13    6    7 ar
    14    6    9 1
    15    7    8 1
    16    8   42 1
    17    8   43 1
    18    8   44 1
    19    9   10 am
    20    9   45 1
    21   10   11 2
    22   10   12 1
    23   12   13 1
    24   12   20 1
    25   12   14 1
    26   14   15 1
    27   14   16 1
    28   14   30 1
    29   16   17 2
    30   16   46 1
    31   17   18 1
    32   17   47 1
    33   18   19 1
    34   18   20 1
    35   18   24 1
    36   20   21 1
    37   20   22 1
    38   22   23 2
    39   22   58 1
    40   24   29 ar
    41   24   25 ar
    42   25   26 ar
    43   25   48 1
    44   26   27 ar
    45   26   49 1
    46   27   28 ar
    47   27   50 1
    48   28   29 ar
    49   28   51 1
    50   29   52 1
    51   30   35 ar
    52   30   31 ar
    53   31   32 ar
    54   31   53 1
    55   32   33 ar
    56   32   54 1
    57   33   34 ar
    58   33   55 1
    59   34   35 ar
    60   34   56 1
    61   35   57 1
@<TRIPOS>MOLECULE
ZINC13458915
   43    45     0     0     0
SMALL
USER_CHARGES
2-[(N'E)-N'-[[1-(4-chlorophenyl)-2,5-dimethyl-pyrrol-3-yl]methylene]hydrazino]benzoic acid
@<TRIPOS>ATOM
      1 C1         -4.7492    7.0909    0.0044 C.3       1 <0>        -0.0826
      2 C2         -4.0738    5.7438    0.0038 C.2       1 <0>         0.0189
      3 C3         -2.7442    5.5347   -0.0060 C.2       1 <0>        -0.1643
      4 C4         -2.5484    4.0821   -0.0023 C.2       1 <0>        -0.1144
      5 C5         -3.7959    3.5275    0.0045 C.2       1 <0>         0.0719
      6 N1         -4.7107    4.5361    0.0133 N.pl3     1 <0>        -0.4128
      7 C6         -6.1014    4.3603    0.0250 C.ar      1 <0>         0.1312
      8 C7         -6.7183    3.7685    1.1190 C.ar      1 <0>        -0.0971
      9 C8         -8.0891    3.6004    1.1300 C.ar      1 <0>        -0.0971
     10 C9         -8.8466    4.0122    0.0475 C.ar      1 <0>        -0.0319
     11 C10        -8.2335    4.5980   -1.0461 C.ar      1 <0>        -0.0981
     12 C11        -6.8635    4.7726   -1.0598 C.ar      1 <0>        -0.0985
     13 Cl1       -10.5686    3.7930    0.0613 Cl        1 <0>        -0.0638
     14 C12        -4.1069    2.0529    0.0054 C.3       1 <0>        -0.0890
     15 C13        -1.2609    3.3632   -0.0107 C.2       1 <0>         0.1077
     16 N2         -1.2422    2.0652   -0.0066 N.2       1 <0>        -0.2526
     17 N3         -0.0190    1.3822   -0.0146 N.pl3     1 <0>        -0.5605
     18 C14         0.0009   -0.0041   -0.0101 C.ar      1 <0>         0.2487
     19 C15        -1.1853   -0.7201    0.1081 C.ar      1 <0>        -0.1902
     20 C16        -1.1628   -2.0990    0.1078 C.ar      1 <0>        -0.0836
     21 C17         0.0391   -2.7822   -0.0001 C.ar      1 <0>        -0.1931
     22 C18         1.2252   -2.0915   -0.1128 C.ar      1 <0>        -0.0352
     23 C19         1.2204   -0.6936   -0.1192 C.ar      1 <0>        -0.1891
     24 C20         2.4850    0.0514   -0.2389 C.2       1 <0>         0.5020
     25 O1          2.4880    1.2629   -0.1424 O.co2     1 <0>        -0.6404
     26 H1         -4.9207    7.4118   -1.0231 H         1 <0>         0.0697
     27 H2         -5.7033    7.0188    0.5265 H         1 <0>         0.0610
     28 H3         -4.1122    7.8166    0.5101 H         1 <0>         0.0810
     29 H4         -1.9722    6.2899   -0.0144 H         1 <0>         0.1470
     30 H5         -6.1271    3.4430    1.9621 H         1 <0>         0.1402
     31 H6         -8.5699    3.1439    1.9825 H         1 <0>         0.1422
     32 H7         -8.8267    4.9185   -1.8898 H         1 <0>         0.1417
     33 H8         -6.3854    5.2292   -1.9138 H         1 <0>         0.1393
     34 H9         -4.1765    1.6969    1.0333 H         1 <0>         0.0721
     35 H10        -5.0554    1.8813   -0.5035 H         1 <0>         0.0555
     36 H11        -3.3138    1.5140   -0.5128 H         1 <0>         0.1044
     37 H12        -0.3335    3.9166   -0.0204 H         1 <0>         0.1131
     38 H13         0.8139    1.8792   -0.0273 H         1 <0>         0.4141
     39 H14        -2.1254   -0.1959    0.1963 H         1 <0>         0.1244
     40 H15        -2.0871   -2.6505    0.1961 H         1 <0>         0.1126
     41 H16         0.0450   -3.8622    0.0046 H         1 <0>         0.1123
     42 H17         2.1581   -2.6293   -0.1958 H         1 <0>         0.1295
     43 O2          3.6390   -0.6102   -0.4555 O.co2     1 <0>        -0.7461
@<TRIPOS>BOND
     1    1    2 1
     2    1   26 1
     3    1   27 1
     4    1   28 1
     5    2    6 1
     6    2    3 2
     7    3    4 1
     8    3   29 1
     9    4    5 2
    10    4   15 1
    11    5    6 1
    12    5   14 1
    13    6    7 1
    14    7   12 ar
    15    7    8 ar
    16    8    9 ar
    17    8   30 1
    18    9   10 ar
    19    9   31 1
    20   10   11 ar
    21   10   13 1
    22   11   12 ar
    23   11   32 1
    24   12   33 1
    25   14   34 1
    26   14   35 1
    27   14   36 1
    28   15   16 2
    29   15   37 1
    30   16   17 1
    31   17   18 1
    32   17   38 1
    33   18   23 ar
    34   18   19 ar
    35   19   20 ar
    36   19   39 1
    37   20   21 ar
    38   20   40 1
    39   21   22 ar
    40   21   41 1
    41   22   23 ar
    42   22   42 1
    43   23   24 1
    44   24   25 2
    45   24   43 1
@<TRIPOS>MOLECULE
ZINC20645439
   63    66     0     0     0
SMALL
USER_CHARGES
3-[2-(1-cyclohexenyl)ethyl]-N-[(1R,2R,3R)-2,3-dimethylcyclohexyl]-4-oxo-2-thioxo-1H-quinazoline-7-carboxamide
@<TRIPOS>ATOM
      1 C1         -7.2749    5.0089   -1.3322 C.3       1 <0>        -0.1586
      2 C2         -7.3916    3.7236   -0.5105 C.3       1 <0>        -0.0814
      3 H1         -8.1717    3.0808   -0.9444 H         1 <0>         0.0721
      4 C3         -7.7623    4.0725    0.9324 C.3       1 <0>        -0.1165
      5 C4         -6.6773    4.9668    1.5357 C.3       1 <0>        -0.1193
      6 C5         -5.3383    4.2268    1.5179 C.3       1 <0>        -0.1301
      7 C6         -4.9676    3.8779    0.0751 C.3       1 <0>         0.1525
      8 H2         -4.8412    4.7916   -0.5242 H         1 <0>         0.0909
      9 C7         -6.0525    2.9836   -0.5282 C.3       1 <0>        -0.0908
     10 H3         -6.1363    2.0596    0.0627 H         1 <0>         0.0748
     11 C8         -5.6818    2.6346   -1.9711 C.3       1 <0>        -0.1520
     12 N1         -3.6854    3.1694    0.0580 N.am      1 <0>        -0.7354
     13 C9         -2.5311    3.8650    0.0499 C.2       1 <0>         0.5640
     14 O1         -2.5539    5.0800    0.0566 O.2       1 <0>        -0.5375
     15 C10        -1.2353    3.1489    0.0326 C.ar      1 <0>        -0.0886
     16 C11        -1.2131    1.7512    0.0173 C.ar      1 <0>        -0.1591
     17 C12        -0.0126    1.0758    0.0080 C.ar      1 <0>        -0.0314
     18 C13         1.1824    1.7916    0.0004 C.ar      1 <0>        -0.2184
     19 C14         1.1663    3.1969    0.0081 C.ar      1 <0>         0.1879
     20 C15        -0.0443    3.8712    0.0243 C.ar      1 <0>        -0.0750
     21 N2          2.3751    3.8786    0.0003 N.2       1 <0>        -0.5670
     22 C16         3.5401    3.2089   -0.0154 C.2       1 <0>         0.5068
     23 S1          4.9994    4.1040   -0.0250 S.3       1 <0>        -0.7241
     24 N3          3.6089    1.8686   -0.0233 N.am      1 <0>        -0.5273
     25 C17         2.4919    1.1094   -0.0163 C.2       1 <0>         0.5476
     26 O2          2.5627   -0.1042   -0.0232 O.2       1 <0>        -0.5367
     27 C18         4.9207    1.2165   -0.0394 C.3       1 <0>         0.1028
     28 C19         5.3633    0.9969   -1.4874 C.3       1 <0>        -0.0948
     29 C20         6.7127    0.3261   -1.5039 C.2       1 <0>        -0.0938
     30 C21         6.7482   -0.9634   -1.6105 C.2       1 <0>        -0.1717
     31 C22         8.0130   -1.7708   -1.6312 C.3       1 <0>        -0.0871
     32 C23         9.2100   -0.8676   -1.9362 C.3       1 <0>        -0.1217
     33 C24         9.1474    0.3511   -1.0068 C.3       1 <0>        -0.1189
     34 C25         7.9318    1.1953   -1.4019 C.3       1 <0>        -0.0852
     35 H4         -8.2376    5.5409   -1.3195 H         1 <0>         0.0532
     36 H5         -7.0083    4.7580   -2.3695 H         1 <0>         0.0582
     37 H6         -6.4949    5.6519   -0.8984 H         1 <0>         0.0635
     38 H7         -8.7250    4.6045    0.9452 H         1 <0>         0.0622
     39 H8         -7.8462    3.1484    1.5231 H         1 <0>         0.0618
     40 H9         -6.5934    5.8909    0.9449 H         1 <0>         0.0675
     41 H10        -6.9438    5.2177    2.5730 H         1 <0>         0.0624
     42 H11        -4.5583    4.8698    1.9517 H         1 <0>         0.0688
     43 H12        -5.4222    3.3027    2.1087 H         1 <0>         0.0630
     44 H13        -4.7191    2.1026   -1.9839 H         1 <0>         0.0585
     45 H14        -5.5980    3.5587   -2.5619 H         1 <0>         0.0597
     46 H15        -6.4619    1.9916   -2.4048 H         1 <0>         0.0549
     47 H16        -3.6648    2.0696    0.0518 H         1 <0>         0.4159
     48 H17        -2.1410    1.1986    0.0187 H         1 <0>         0.1213
     49 H18         0.0021   -0.0041    0.0020 H         1 <0>         0.1305
     50 H19        -0.0643    4.9510    0.0299 H         1 <0>         0.1414
     51 H20         5.6538    1.8549    0.4753 H         1 <0>         0.1192
     52 H21         4.8543    0.2464    0.4749 H         1 <0>         0.0793
     53 H22         4.6301    0.3585   -2.0021 H         1 <0>         0.0598
     54 H23         5.4297    1.9670   -2.0017 H         1 <0>         0.0835
     55 H24         5.8117   -1.5344   -1.6930 H         1 <0>         0.1023
     56 H25         8.1607   -2.2461   -0.6502 H         1 <0>         0.0683
     57 H26         7.9400   -2.5469   -2.4073 H         1 <0>         0.0648
     58 H27        10.1428   -1.4244   -1.7637 H         1 <0>         0.0587
     59 H28         9.1659   -0.5424   -2.9861 H         1 <0>         0.0615
     60 H29         9.0491    0.0128    0.0353 H         1 <0>         0.0630
     61 H30        10.0686    0.9425   -1.1150 H         1 <0>         0.0623
     62 H31         8.1240    1.6728   -2.3740 H         1 <0>         0.0721
     63 H32         7.7668    1.9704   -0.6390 H         1 <0>         0.0852
@<TRIPOS>BOND
     1    1    2 1
     2    1   35 1
     3    1   36 1
     4    1   37 1
     5    2    3 1
     6    2    9 1
     7    2    4 1
     8    4    5 1
     9    4   38 1
    10    4   39 1
    11    5    6 1
    12    5   40 1
    13    5   41 1
    14    6    7 1
    15    6   42 1
    16    6   43 1
    17    7    8 1
    18    7    9 1
    19    7   12 1
    20    9   10 1
    21    9   11 1
    22   11   44 1
    23   11   45 1
    24   11   46 1
    25   12   13 am
    26   12   47 1
    27   13   14 2
    28   13   15 1
    29   15   20 ar
    30   15   16 ar
    31   16   17 ar
    32   16   48 1
    33   17   18 ar
    34   17   49 1
    35   18   25 1
    36   18   19 ar
    37   19   20 ar
    38   19   21 1
    39   20   50 1
    40   21   22 2
    41   22   23 1
    42   22   24 1
    43   24   25 am
    44   24   27 1
    45   25   26 2
    46   27   28 1
    47   27   51 1
    48   27   52 1
    49   28   29 1
    50   28   53 1
    51   28   54 1
    52   29   34 1
    53   29   30 2
    54   30   31 1
    55   30   55 1
    56   31   32 1
    57   31   56 1
    58   31   57 1
    59   32   33 1
    60   32   58 1
    61   32   59 1
    62   33   34 1
    63   33   60 1
    64   33   61 1
    65   34   62 1
    66   34   63 1
@<TRIPOS>MOLECULE
ZINC33612435
   59    61     0     0     0
SMALL
USER_CHARGES
1-(3-chlorophenyl)-3-[(2R)-6-hydroxy-2,6-dimethyl-heptyl]-5-phenyl-pyrazole-4-carboxylic acid
@<TRIPOS>ATOM
      1 C1          4.2936    6.4601   -0.3720 C.3       1 <0>        -0.1470
      2 C2          5.7721    6.0788   -0.2749 C.3       1 <0>        -0.0805
      3 H1          6.0340    5.8908    0.7768 H         1 <0>         0.0648
      4 C3          6.6306    7.2231   -0.8176 C.3       1 <0>        -0.1130
      5 C4          6.4696    8.4516    0.0801 C.3       1 <0>        -0.1177
      6 C5          7.3281    9.5959   -0.4626 C.3       1 <0>        -0.1054
      7 C6          7.1671   10.8243    0.4351 C.3       1 <0>         0.1352
      8 C7          7.9256   12.0047   -0.1750 C.3       1 <0>        -0.1788
      9 C8          5.6833   11.1782    0.5539 C.3       1 <0>        -0.1830
     10 O1          7.6940   10.5388    1.7323 O.3       1 <0>        -0.5846
     11 C9          6.0279    4.8147   -1.0978 C.3       1 <0>        -0.0352
     12 C10         5.2772    3.6585   -0.4890 C.2       1 <0>         0.1127
     13 C11         3.9594    3.2689   -0.8115 C.2       1 <0>        -0.1855
     14 C12         3.6559    2.1590   -0.0216 C.2       1 <0>         0.1065
     15 N1          4.7511    1.9062    0.7432 N.pl3     1 <0>        -0.3321
     16 N2          5.7356    2.8479    0.4246 N.2       1 <0>        -0.2931
     17 C13         4.8737    0.8781    1.6860 C.ar      1 <0>         0.1888
     18 C14         6.0960    0.2443    1.8695 C.ar      1 <0>        -0.1153
     19 C15         6.2145   -0.7689    2.8002 C.ar      1 <0>        -0.0891
     20 C16         5.1179   -1.1534    3.5498 C.ar      1 <0>        -0.1248
     21 C17         3.8985   -0.5243    3.3699 C.ar      1 <0>        -0.0123
     22 C18         3.7752    0.4943    2.4433 C.ar      1 <0>        -0.1217
     23 Cl1         2.5243   -1.0101    4.3130 Cl        1 <0>        -0.0641
     24 C19         2.3852    1.4068   -0.0136 C.ar      1 <0>        -0.0222
     25 C20         1.1665    2.0885    0.0021 C.ar      1 <0>        -0.0777
     26 C21        -0.0167    1.3795    0.0096 C.ar      1 <0>        -0.1187
     27 C22         0.0021   -0.0041    0.0020 C.ar      1 <0>        -0.1150
     28 C23         1.2060   -0.6860   -0.0131 C.ar      1 <0>        -0.1229
     29 C24         2.3967    0.0104   -0.0212 C.ar      1 <0>        -0.1009
     30 C25         3.0739    3.9110   -1.7934 C.2       1 <0>         0.5302
     31 O2          2.3360    4.8132   -1.4478 O.co2     1 <0>        -0.6187
     32 O3          3.0801    3.4996   -3.0771 O.co2     1 <0>        -0.7516
     33 H2          3.6764    5.6374    0.0182 H         1 <0>         0.0774
     34 H3          4.0317    6.6481   -1.4237 H         1 <0>         0.0597
     35 H4          4.1097    7.3690    0.2197 H         1 <0>         0.0398
     36 H5          7.6864    6.9148   -0.8312 H         1 <0>         0.0574
     37 H6          6.3078    7.4709   -1.8396 H         1 <0>         0.0631
     38 H7          5.4138    8.7599    0.0937 H         1 <0>         0.0686
     39 H8          6.7924    8.2038    1.1021 H         1 <0>         0.0660
     40 H9          8.3839    9.2876   -0.4762 H         1 <0>         0.0658
     41 H10         7.0053    9.8437   -1.4845 H         1 <0>         0.0739
     42 H11         7.8099   12.8879    0.4704 H         1 <0>         0.0541
     43 H12         7.5199   12.2245   -1.1735 H         1 <0>         0.0633
     44 H13         8.9924   11.7503   -0.2605 H         1 <0>         0.0605
     45 H14         5.5676   12.0614    1.1993 H         1 <0>         0.0519
     46 H15         5.1379   10.3295    0.9925 H         1 <0>         0.0708
     47 H16         5.2777   11.3981   -0.4447 H         1 <0>         0.0639
     48 H17         7.6662   11.3075    2.5186 H         1 <0>         0.3961
     49 H18         5.6827    4.9731   -2.1301 H         1 <0>         0.0899
     50 H19         7.1050    4.5913   -1.1016 H         1 <0>         0.0745
     51 H20         6.9530    0.5435    1.2844 H         1 <0>         0.1388
     52 H21         7.1650   -1.2615    2.9432 H         1 <0>         0.1388
     53 H22         5.2133   -1.9459    4.2773 H         1 <0>         0.1358
     54 H23         2.8246    0.9882    2.3061 H         1 <0>         0.1420
     55 H24         1.1504    3.1684    0.0077 H         1 <0>         0.1393
     56 H25        -0.9599    1.9055    0.0169 H         1 <0>         0.1252
     57 H26        -0.9273   -0.5543    0.0083 H         1 <0>         0.1204
     58 H27         1.2134   -1.7660   -0.0190 H         1 <0>         0.1211
     59 H28         3.3356   -0.5231   -0.0337 H         1 <0>         0.1147
@<TRIPOS>BOND
     1    1    2 1
     2    1   33 1
     3    1   34 1
     4    1   35 1
     5    2    3 1
     6    2    4 1
     7    2   11 1
     8    4    5 1
     9    4   36 1
    10    4   37 1
    11    5    6 1
    12    5   38 1
    13    5   39 1
    14    6    7 1
    15    6   40 1
    16    6   41 1
    17    7    8 1
    18    7    9 1
    19    7   10 1
    20    8   42 1
    21    8   43 1
    22    8   44 1
    23    9   45 1
    24    9   46 1
    25    9   47 1
    26   10   48 1
    27   11   12 1
    28   11   49 1
    29   11   50 1
    30   12   16 2
    31   12   13 1
    32   13   14 2
    33   13   30 1
    34   14   15 1
    35   14   24 1
    36   15   16 1
    37   15   17 1
    38   17   22 ar
    39   17   18 ar
    40   18   19 ar
    41   18   51 1
    42   19   20 ar
    43   19   52 1
    44   20   21 ar
    45   20   53 1
    46   21   22 ar
    47   21   23 1
    48   22   54 1
    49   24   29 ar
    50   24   25 ar
    51   25   26 ar
    52   25   55 1
    53   26   27 ar
    54   26   56 1
    55   27   28 ar
    56   27   57 1
    57   28   29 ar
    58   28   58 1
    59   29   59 1
    60   30   31 2
    61   30   32 1
@<TRIPOS>MOLECULE
ZINC48383382
   37    39     0     0     0
SMALL
USER_CHARGES

@<TRIPOS>ATOM
      1 C1         -4.2330    2.8927   -0.1918 C.ar      1 <0>        -0.1356
      2 C2         -3.7578    4.1885   -0.1667 C.ar      1 <0>        -0.0599
      3 C3         -2.4767    4.4495    0.3036 C.ar      1 <0>        -0.1401
      4 C4         -1.6744    3.4059    0.7486 C.ar      1 <0>        -0.0966
      5 C5         -2.1505    2.1104    0.7232 C.ar      1 <0>        -0.1073
      6 C6         -3.4309    1.8501    0.2531 C.ar      1 <0>         0.1951
      7 N1         -3.9138    0.5346    0.2275 N.am      1 <0>        -0.6756
      8 C7         -3.0641   -0.4913    0.0228 C.2       1 <0>         0.5387
      9 O1         -1.8699   -0.2871   -0.0367 O.2       1 <0>        -0.4793
     10 C8         -3.5976   -1.8921   -0.1321 C.3       1 <0>        -0.0881
     11 H1         -4.6785   -1.9069    0.0075 H         1 <0>         0.0758
     12 C9         -2.9004   -2.8599    0.8765 C.3       1 <0>        -0.0599
     13 H2         -3.2555   -2.8217    1.9063 H         1 <0>         0.0912
     14 C10        -3.0723   -4.2286    0.1214 C.3       1 <0>        -0.1224
     15 C11        -2.3372   -3.7132   -1.1697 C.3       1 <0>        -0.0539
     16 H3         -2.1763   -4.4418   -1.9643 H         1 <0>         0.0916
     17 C12        -3.2199   -2.4682   -1.5187 C.3       1 <0>        -0.1463
     18 H4         -4.1137   -2.7706   -2.0644 H         1 <0>         0.0698
     19 C13        -2.4279   -1.4616   -2.3127 C.2       1 <0>         0.5059
     20 O2         -1.2690   -1.6957   -2.6105 O.co2     1 <0>        -0.6730
     21 O3         -2.9460   -0.4132   -2.6574 O.co2     1 <0>        -0.7001
     22 C14        -1.0784   -3.1134   -0.5315 C.2       1 <0>        -0.0853
     23 C15        -1.4032   -2.6054    0.6633 C.2       1 <0>        -0.2007
     24 S1         -1.8694    6.1032    0.3352 S.3       1 <0>        -0.0401
     25 C16        -0.1944    5.9427    1.0129 C.3       1 <0>         0.4526
     26 F1          0.5684    5.1169    0.1802 F         1 <0>        -0.1606
     27 F2          0.4011    7.2064    1.0887 F         1 <0>        -0.1509
     28 F3         -0.2609    5.3811    2.2925 F         1 <0>        -0.1649
     29 H5         -5.2304    2.6903   -0.5532 H         1 <0>         0.1346
     30 H6         -4.3816    4.9993   -0.5130 H         1 <0>         0.1319
     31 H7         -0.6784    3.6082    1.1140 H         1 <0>         0.1214
     32 H8         -1.5270    1.2992    1.0691 H         1 <0>         0.1523
     33 H9         -4.8596    0.3626    0.3572 H         1 <0>         0.4045
     34 H10        -2.5378   -5.0442    0.6086 H         1 <0>         0.0716
     35 H11        -4.1178   -4.4750   -0.0636 H         1 <0>         0.0674
     36 H12        -0.0930   -3.0966   -0.9733 H         1 <0>         0.1195
     37 H13        -0.7402   -2.1156    1.3612 H         1 <0>         0.1166
@<TRIPOS>BOND
     1    1    6 ar
     2    1    2 ar
     3    1   29 1
     4    2    3 ar
     5    2   30 1
     6    3    4 ar
     7    3   24 1
     8    4    5 ar
     9    4   31 1
    10    5    6 ar
    11    5   32 1
    12    6    7 1
    13    7    8 am
    14    7   33 1
    15    8    9 2
    16    8   10 1
    17   10   11 1
    18   10   17 1
    19   10   12 1
    20   12   13 1
    21   12   23 1
    22   12   14 1
    23   14   15 1
    24   14   34 1
    25   14   35 1
    26   15   16 1
    27   15   17 1
    28   15   22 1
    29   17   18 1
    30   17   19 1
    31   19   20 2
    32   19   21 1
    33   22   23 2
    34   22   36 1
    35   23   37 1
    36   24   25 1
    37   25   26 1
    38   25   27 1
    39   25   28 1
@<TRIPOS>MOLECULE
ZINC08442995
   52    56     0     0     0
SMALL
USER_CHARGES
bromo-[4-[(2-chlorophenyl)methoxy]phenyl]-BLAHcarboxylic acid
@<TRIPOS>ATOM
      1 C1          0.7517    0.1060   -0.0780 C.ar      1 <0>        -0.1125
      2 C2         -0.1877   -0.8845    0.1412 C.ar      1 <0>        -0.1074
      3 C3         -1.5012   -0.5453    0.4046 C.ar      1 <0>        -0.1100
      4 C4         -1.8761    0.7859    0.4494 C.ar      1 <0>        -0.0314
      5 C5         -0.9355    1.7765    0.2309 C.ar      1 <0>        -0.0815
      6 C6          0.3780    1.4359   -0.0329 C.ar      1 <0>        -0.0839
      7 C7         -1.3428    3.2265    0.2806 C.3       1 <0>         0.1038
      8 O1         -0.2034    4.0503    0.0249 O.3       1 <0>        -0.3117
      9 C8         -0.3999    5.3950    0.0334 C.ar      1 <0>         0.1263
     10 C9         -1.6645    5.9109    0.2771 C.ar      1 <0>        -0.2089
     11 C10        -1.8605    7.2783    0.2904 C.ar      1 <0>        -0.0612
     12 C11        -0.7998    8.1323    0.0508 C.ar      1 <0>        -0.1354
     13 C12         0.4603    7.6205   -0.1980 C.ar      1 <0>        -0.0844
     14 C13         0.6626    6.2540   -0.2072 C.ar      1 <0>        -0.1385
     15 C14        -1.0177    9.6234    0.0603 C.3       1 <0>         0.1432
     16 H1         -1.9958    9.8505   -0.3639 H         1 <0>         0.1002
     17 C15        -0.9536   10.1393    1.4997 C.3       1 <0>        -0.0818
     18 H2         -1.1527   11.2084    1.5731 H         1 <0>         0.1007
     19 C16        -1.9243    9.2790    2.3569 C.3       1 <0>        -0.0904
     20 C17        -1.1124    8.0394    2.6764 C.2       1 <0>        -0.1695
     21 C18         0.1680    8.2834    2.5505 C.2       1 <0>        -0.1401
     22 C19         0.4034    9.7346    2.1148 C.3       1 <0>        -0.0090
     23 H3          0.6181   10.3560    2.9842 H         1 <0>         0.0937
     24 C20         1.5137    9.8338    1.1103 C.ar      1 <0>        -0.1365
     25 C21         2.8105    9.6584    1.5604 C.ar      1 <0>        -0.0328
     26 C22         3.8850    9.7346    0.6740 C.ar      1 <0>        -0.1412
     27 C23         3.6497    9.9901   -0.6811 C.ar      1 <0>        -0.0127
     28 C24         2.3615   10.1660   -1.1250 C.ar      1 <0>        -0.1694
     29 C25         1.2859   10.0920   -0.2336 C.ar      1 <0>         0.1749
     30 N1          0.0225   10.2734   -0.7371 N.pl3     1 <0>        -0.6245
     31 Br1         2.0397   10.5120   -2.9561 Br        1 <0>        -0.0613
     32 C26         5.2626    9.5472    1.1632 C.2       1 <0>         0.4936
     33 O2          5.4642    9.3257    2.3409 O.co2     1 <0>        -0.6314
     34 Cl1        -3.5260    1.2128    0.7797 Cl        1 <0>        -0.0687
     35 H4          1.7781   -0.1596   -0.2842 H         1 <0>         0.1327
     36 H5          0.1050   -1.9235    0.1062 H         1 <0>         0.1332
     37 H6         -2.2349   -1.3191    0.5758 H         1 <0>         0.1353
     38 H7          1.1132    2.2093   -0.1995 H         1 <0>         0.1441
     39 H8         -2.1050    3.4159   -0.4752 H         1 <0>         0.0788
     40 H9         -1.7441    3.4576    1.2673 H         1 <0>         0.0793
     41 H10        -2.4941    5.2441    0.4602 H         1 <0>         0.1228
     42 H11        -2.8438    7.6805    0.4845 H         1 <0>         0.1227
     43 H12         1.2872    8.2896   -0.3849 H         1 <0>         0.1478
     44 H13         1.6471    5.8547   -0.4012 H         1 <0>         0.1281
     45 H14        -2.1972    9.8051    3.2717 H         1 <0>         0.0756
     46 H15        -2.8149    9.0201    1.7844 H         1 <0>         0.0703
     47 H16        -1.5316    7.0876    2.9679 H         1 <0>         0.1202
     48 H17         0.9525    7.5627    2.7281 H         1 <0>         0.1214
     49 H18         2.9922    9.4612    2.6066 H         1 <0>         0.1325
     50 H19         4.4758   10.0492   -1.3741 H         1 <0>         0.1422
     51 H20        -0.0298    9.9861   -1.7029 H         1 <0>         0.3659
     52 O3          6.2985    9.6214    0.3045 O.co2     1 <0>        -0.7533
@<TRIPOS>BOND
     1    1    6 ar
     2    1    2 ar
     3    1   35 1
     4    2    3 ar
     5    2   36 1
     6    3    4 ar
     7    3   37 1
     8    4    5 ar
     9    4   34 1
    10    5    6 ar
    11    5    7 1
    12    6   38 1
    13    7    8 1
    14    7   39 1
    15    7   40 1
    16    8    9 1
    17    9   14 ar
    18    9   10 ar
    19   10   11 ar
    20   10   41 1
    21   11   12 ar
    22   11   42 1
    23   12   13 ar
    24   12   15 1
    25   13   14 ar
    26   13   43 1
    27   14   44 1
    28   15   16 1
    29   15   30 1
    30   15   17 1
    31   17   18 1
    32   17   22 1
    33   17   19 1
    34   19   20 1
    35   19   45 1
    36   19   46 1
    37   20   21 2
    38   20   47 1
    39   21   22 1
    40   21   48 1
    41   22   23 1
    42   22   24 1
    43   24   29 ar
    44   24   25 ar
    45   25   26 ar
    46   25   49 1
    47   26   27 ar
    48   26   32 1
    49   27   28 ar
    50   27   50 1
    51   28   29 ar
    52   28   31 1
    53   29   30 1
    54   30   51 1
    55   32   33 2
    56   32   52 1
@<TRIPOS>MOLECULE
ZINC17207964
   42    45     0     0     0
SMALL
USER_CHARGES
2,5-dichloro-N-[3-[(2-chlorophenyl)amino]quinoxalin-2-yl]benzenesulfonamide
@<TRIPOS>ATOM
      1 C1          1.0628   -6.2303   -1.2121 C.ar      1 <0>        -0.1431
      2 C2         -0.1621   -6.8773   -1.3522 C.ar      1 <0>        -0.1155
      3 C3         -1.3331   -6.2044   -1.1741 C.ar      1 <0>        -0.0993
      4 C4         -1.3096   -4.8398   -0.8444 C.ar      1 <0>         0.1164
      5 C5         -0.0643   -4.1821   -0.7016 C.ar      1 <0>         0.0466
      6 C6          1.1228   -4.9075   -0.8930 C.ar      1 <0>        -0.0757
      7 N1         -0.0310   -2.8777   -0.3926 N.ar      1 <0>        -0.4951
      8 C7         -1.1573   -2.2188   -0.2134 C.ar      1 <0>         0.3753
      9 C8         -2.4025   -2.8764   -0.3561 C.ar      1 <0>         0.4025
     10 N2         -2.4491   -4.1558   -0.6644 N.ar      1 <0>        -0.5501
     11 N3         -3.5807   -2.1690   -0.1704 N.2       1 <0>        -1.0175
     12 S1         -5.0335   -2.9637   -0.1775 S.o2      1 <0>         2.6193
     13 O1         -4.9220   -4.0222    0.7639 O.2       1 <0>        -1.0070
     14 O2         -6.0421   -1.9668   -0.0870 O.2       1 <0>        -0.9780
     15 C9         -5.2087   -3.7149   -1.7616 C.ar      1 <0>        -0.6230
     16 C10        -5.3058   -5.0897   -1.8676 C.ar      1 <0>         0.0113
     17 C11        -5.4433   -5.6795   -3.1114 C.ar      1 <0>        -0.0575
     18 C12        -5.4836   -4.8932   -4.2493 C.ar      1 <0>        -0.0674
     19 C13        -5.3861   -3.5190   -4.1434 C.ar      1 <0>        -0.1283
     20 C14        -5.2548   -2.9286   -2.8988 C.ar      1 <0>         0.0515
     21 Cl1        -5.1400   -1.2015   -2.7650 Cl        1 <0>        -0.0343
     22 Cl2        -5.5658   -7.4060   -3.2445 Cl        1 <0>        -0.0706
     23 N4         -1.1230   -0.8704    0.1117 N.pl3     1 <0>        -0.6414
     24 C15         0.0997   -0.2457    0.3745 C.ar      1 <0>         0.2013
     25 C16         1.1610   -0.9807    0.8870 C.ar      1 <0>        -0.1238
     26 C17         2.3678   -0.3606    1.1451 C.ar      1 <0>        -0.0923
     27 C18         2.5208    0.9908    0.8941 C.ar      1 <0>        -0.1516
     28 C19         1.4668    1.7263    0.3840 C.ar      1 <0>        -0.0882
     29 C20         0.2563    1.1124    0.1232 C.ar      1 <0>        -0.0872
     30 Cl3        -1.0644    2.0347   -0.5240 Cl        1 <0>        -0.0721
     31 H1          1.9779   -6.7850   -1.3582 H         1 <0>         0.1162
     32 H2         -0.1842   -7.9269   -1.6058 H         1 <0>         0.1163
     33 H3         -2.2761   -6.7186   -1.2866 H         1 <0>         0.1221
     34 H4          2.0798   -4.4182   -0.7878 H         1 <0>         0.1210
     35 H5         -5.2747   -5.7033   -0.9795 H         1 <0>         0.1526
     36 H6         -5.5910   -5.3537   -5.2203 H         1 <0>         0.1395
     37 H7         -5.4172   -2.9053   -5.0316 H         1 <0>         0.1409
     38 H8         -2.0579   -0.2930    0.1626 H         1 <0>         0.4614
     39 H9          1.0426   -2.0360    1.0837 H         1 <0>         0.1505
     40 H10         3.1933   -0.9319    1.5432 H         1 <0>         0.1234
     41 H11         3.4657    1.4728    1.0970 H         1 <0>         0.1230
     42 H12         1.5898    2.7814    0.1887 H         1 <0>         0.1278
@<TRIPOS>BOND
     1    1    6 ar
     2    1    2 ar
     3    1   31 1
     4    2    3 ar
     5    2   32 1
     6    3    4 ar
     7    3   33 1
     8    4   10 ar
     9    4    5 ar
    10    5    6 ar
    11    5    7 ar
    12    6   34 1
    13    7    8 ar
    14    8    9 ar
    15    8   23 1
    16    9   10 ar
    17    9   11 1
    18   11   12 1
    19   12   13 2
    20   12   14 2
    21   12   15 1
    22   15   20 ar
    23   15   16 ar
    24   16   17 ar
    25   16   35 1
    26   17   18 ar
    27   17   22 1
    28   18   19 ar
    29   18   36 1
    30   19   20 ar
    31   19   37 1
    32   20   21 1
    33   23   24 1
    34   23   38 1
    35   24   29 ar
    36   24   25 ar
    37   25   26 ar
    38   25   39 1
    39   26   27 ar
    40   26   40 1
    41   27   28 ar
    42   27   41 1
    43   28   29 ar
    44   28   42 1
    45   29   30 1
@<TRIPOS>MOLECULE
ZINC34923970
   59    62     0     0     0
SMALL
USER_CHARGES

@<TRIPOS>ATOM
      1 C1         -0.3054    1.6257    0.5747 C.3       1 <0>        -0.1502
      2 C2         -0.1985    0.1161    0.3498 C.3       1 <0>         0.0661
      3 O1         -1.5089   -0.4516    0.2968 O.3       1 <0>        -0.3567
      4 C3         -1.5918   -1.7863    0.1021 C.2       1 <0>         0.5373
      5 O2         -0.5760   -2.4488   -0.0193 O.2       1 <0>        -0.5496
      6 C4         -2.8448   -2.4082    0.0398 C.2       1 <0>        -0.3994
      7 C5         -2.9623   -3.7460   -0.2850 C.2       1 <0>         0.3087
      8 N1         -4.1528   -4.3205   -0.3401 N.2       1 <0>        -0.5941
      9 C6         -5.2945   -3.7080   -0.1025 C.2       1 <0>         0.3313
     10 N2         -5.3958   -2.3873    0.2346 N.pl3     1 <0>        -0.5135
     11 C7         -4.1140   -1.6393    0.3319 C.3       1 <0>         0.2656
     12 H1         -4.1653   -0.8004   -0.3621 H         1 <0>         0.0776
     13 C8         -4.0049   -1.0761    1.7254 C.ar      1 <0>        -0.1083
     14 C9         -3.7349    0.2670    1.9090 C.ar      1 <0>        -0.0531
     15 C10        -3.6348    0.7839    3.1871 C.ar      1 <0>        -0.1371
     16 C11        -3.8046   -0.0417    4.2831 C.ar      1 <0>        -0.0937
     17 C12        -4.0750   -1.3846    4.1020 C.ar      1 <0>        -0.1620
     18 C13        -4.1807   -1.9025    2.8220 C.ar      1 <0>         0.1206
     19 F1         -4.4497   -3.2144    2.6437 F         1 <0>        -0.1367
     20 C14        -6.6658   -1.8916    0.4530 C.2       1 <0>         0.2294
     21 C15        -7.7040   -2.7458    0.3172 C.2       1 <0>        -0.3043
     22 S1         -6.8786   -4.2621   -0.1234 S.3       1 <0>         0.1384
     23 C16        -6.8809   -0.4848    0.8206 C.2       1 <0>        -0.4726
     24 C17        -8.1326    0.0051    0.9063 C.2       1 <0>         0.5037
     25 O3         -9.1957   -0.8234    0.7643 O.3       1 <0>        -0.7006
     26 N3         -8.3332    1.3552    1.1393 N.pl3     1 <0>        -0.7520
     27 C18        -9.6899    1.8701    1.3405 C.3       1 <0>         0.1678
     28 C19       -10.3665    2.0689   -0.0173 C.3       1 <0>        -0.1267
     29 C20       -11.7834    2.6067    0.1927 C.3       1 <0>        -0.1165
     30 C21       -11.7166    3.9456    0.9302 C.3       1 <0>        -0.1185
     31 C22       -11.0401    3.7468    2.2880 C.3       1 <0>        -0.1139
     32 C23        -9.6232    3.2090    2.0779 C.3       1 <0>        -0.1264
     33 C24        -1.7260   -4.5562   -0.5789 C.3       1 <0>        -0.1065
     34 H2          0.6940    2.0587    0.6151 H         1 <0>         0.0714
     35 H3         -0.8638    2.0766   -0.2457 H         1 <0>         0.0632
     36 H4         -0.8227    1.8172    1.5148 H         1 <0>         0.0645
     37 H5          0.3187   -0.0755   -0.5904 H         1 <0>         0.0583
     38 H6          0.3599   -0.3348    1.1701 H         1 <0>         0.0581
     39 H7         -3.6018    0.9127    1.0536 H         1 <0>         0.1288
     40 H8         -3.4235    1.8334    3.3296 H         1 <0>         0.1234
     41 H9         -3.7254    0.3632    5.2813 H         1 <0>         0.1250
     42 H10        -4.2072   -2.0293    4.9583 H         1 <0>         0.1273
     43 H11        -8.7601   -2.5582    0.4433 H         1 <0>         0.2374
     44 H12        -6.0352    0.1561    1.0221 H         1 <0>         0.0887
     45 H13        -7.5755    1.9600    1.1694 H         1 <0>         0.3825
     46 H14       -10.2649    1.1577    1.9321 H         1 <0>         0.0724
     47 H15        -9.7915    2.7813   -0.6089 H         1 <0>         0.0503
     48 H16       -10.4141    1.1151   -0.5427 H         1 <0>         0.0734
     49 H17       -12.2654    2.7483   -0.7746 H         1 <0>         0.0560
     50 H18       -12.3584    1.8943    0.7843 H         1 <0>         0.0611
     51 H19       -11.1416    4.6579    0.3386 H         1 <0>         0.0581
     52 H20       -12.7260    4.3287    1.0798 H         1 <0>         0.0563
     53 H21       -10.9925    4.7006    2.8133 H         1 <0>         0.0585
     54 H22       -11.6151    3.0344    2.8796 H         1 <0>         0.0622
     55 H23        -9.1412    3.0674    3.0452 H         1 <0>         0.0617
     56 H24        -9.0482    3.9214    1.4863 H         1 <0>         0.0595
     57 H25        -1.2940   -4.9121    0.3564 H         1 <0>         0.0811
     58 H26        -1.9906   -5.4087   -1.2045 H         1 <0>         0.0643
     59 H27        -0.9994   -3.9339   -1.1012 H         1 <0>         0.1022
@<TRIPOS>BOND
     1    1    2 1
     2    1   34 1
     3    1   35 1
     4    1   36 1
     5    2    3 1
     6    2   37 1
     7    2   38 1
     8    3    4 1
     9    4    5 2
    10    4    6 1
    11    6   11 1
    12    6    7 2
    13    7    8 1
    14    7   33 1
    15    8    9 2
    16    9   22 1
    17    9   10 1
    18   10   11 1
    19   10   20 1
    20   11   12 1
    21   11   13 1
    22   13   18 ar
    23   13   14 ar
    24   14   15 ar
    25   14   39 1
    26   15   16 ar
    27   15   40 1
    28   16   17 ar
    29   16   41 1
    30   17   18 ar
    31   17   42 1
    32   18   19 1
    33   20   21 2
    34   20   23 1
    35   21   22 1
    36   21   43 1
    37   23   24 2
    38   23   44 1
    39   24   25 1
    40   24   26 1
    41   26   27 1
    42   26   45 1
    43   27   32 1
    44   27   28 1
    45   27   46 1
    46   28   29 1
    47   28   47 1
    48   28   48 1
    49   29   30 1
    50   29   49 1
    51   29   50 1
    52   30   31 1
    53   30   51 1
    54   30   52 1
    55   31   32 1
    56   31   53 1
    57   31   54 1
    58   32   55 1
    59   32   56 1
    60   33   57 1
    61   33   58 1
    62   33   59 1
@<TRIPOS>MOLECULE
ZINC43769708
   52    56     0     0     0
SMALL
USER_CHARGES

@<TRIPOS>ATOM
      1 C1          0.7253    1.2906   -0.1101 C.ar      1 <0>        -0.1153
      2 C2         -0.2102    2.2487    0.2341 C.ar      1 <0>        -0.1077
      3 C3         -1.4782    1.8663    0.6287 C.ar      1 <0>        -0.1085
      4 C4         -1.8116    0.5243    0.6788 C.ar      1 <0>        -0.0315
      5 C5         -0.8754   -0.4338    0.3339 C.ar      1 <0>        -0.0803
      6 C6          0.3929   -0.0501   -0.0602 C.ar      1 <0>        -0.0861
      7 C7         -1.2375   -1.8956    0.3888 C.3       1 <0>         0.1004
      8 O1         -0.1120   -2.6805   -0.0102 O.3       1 <0>        -0.3124
      9 C8         -0.2719   -4.0300   -0.0161 C.ar      1 <0>         0.1289
     10 C9         -1.4889   -4.5871    0.3488 C.ar      1 <0>        -0.2056
     11 C10        -1.6491   -5.9593    0.3414 C.ar      1 <0>        -0.0544
     12 C11        -0.5976   -6.7772   -0.0288 C.ar      1 <0>        -0.1307
     13 C12         0.6165   -6.2244   -0.3925 C.ar      1 <0>        -0.0729
     14 C13         0.7798   -4.8527   -0.3927 C.ar      1 <0>        -0.1518
     15 C14        -0.7749   -8.2737   -0.0354 C.3       1 <0>         0.2098
     16 H1          0.1637   -8.7645    0.2219 H         1 <0>         0.0967
     17 C15        -1.2531   -8.7389   -1.3990 C.3       1 <0>        -0.1041
     18 H2         -1.4662   -9.8078   -1.4024 H         1 <0>         0.0947
     19 C16        -0.4121   -8.3285   -2.6150 C.3       1 <0>        -0.0853
     20 C17        -1.4729   -8.2688   -3.7159 C.2       1 <0>        -0.1826
     21 C18        -2.6653   -8.0265   -3.1850 C.2       1 <0>        -0.1334
     22 C19        -2.5251   -7.8916   -1.7029 C.3       1 <0>        -0.0313
     23 H3         -2.2860   -6.8490   -1.4935 H         1 <0>         0.0917
     24 C20        -3.5808   -8.3046   -0.7524 C.ar      1 <0>        -0.1502
     25 C21        -4.8987   -8.3454   -1.0983 C.ar      1 <0>        -0.0190
     26 C22        -5.8617   -8.7301   -0.1589 C.ar      1 <0>        -0.1737
     27 C23        -5.4647   -9.0722    1.1393 C.ar      1 <0>        -0.0166
     28 C24        -4.1438   -9.0352    1.4806 C.ar      1 <0>        -0.1715
     29 C25        -3.1803   -8.6590    0.5449 C.ar      1 <0>         0.2344
     30 N1         -1.8348   -8.6666    0.9180 N.pl3     1 <0>        -0.7415
     31 Br1        -3.6157   -9.4969    3.2367 Br        1 <0>        -0.0764
     32 C26        -7.2840   -8.7744   -0.5333 C.2       1 <0>         0.5252
     33 O2         -7.6274   -8.4743   -1.6687 O.co2     1 <0>        -0.6898
     34 O3         -8.1233   -9.1113    0.2907 O.co2     1 <0>        -0.6893
     35 Cl1        -3.4041    0.0432    1.1750 Cl        1 <0>        -0.0608
     36 H4          1.7148    1.5901   -0.4224 H         1 <0>         0.1309
     37 H5          0.0501    3.2961    0.1949 H         1 <0>         0.1328
     38 H6         -2.2087    2.6148    0.8982 H         1 <0>         0.1364
     39 H7          1.1241   -0.7980   -0.3291 H         1 <0>         0.1418
     40 H8         -1.5233   -2.1612    1.4066 H         1 <0>         0.0819
     41 H9         -2.0723   -2.0886   -0.2851 H         1 <0>         0.0832
     42 H10        -2.3103   -3.9487    0.6388 H         1 <0>         0.1270
     43 H11        -2.5963   -6.3934    0.6255 H         1 <0>         0.1322
     44 H12         1.4364   -6.8655   -0.6810 H         1 <0>         0.1300
     45 H13         1.7269   -4.4212   -0.6811 H         1 <0>         0.1293
     46 H14         0.0466   -7.3517   -2.4611 H         1 <0>         0.0822
     47 H15         0.3428   -9.0818   -2.8402 H         1 <0>         0.0693
     48 H16        -1.2801   -8.4040   -4.7699 H         1 <0>         0.1264
     49 H17        -3.5949   -7.9545   -3.7300 H         1 <0>         0.1309
     50 H18        -5.2005   -8.0795   -2.1006 H         1 <0>         0.1308
     51 H19        -6.2035   -9.3650    1.8706 H         1 <0>         0.1351
     52 H20        -1.5894   -8.9352    1.8172 H         1 <0>         0.4009
@<TRIPOS>BOND
     1    1    6 ar
     2    1    2 ar
     3    1   36 1
     4    2    3 ar
     5    2   37 1
     6    3    4 ar
     7    3   38 1
     8    4    5 ar
     9    4   35 1
    10    5    6 ar
    11    5    7 1
    12    6   39 1
    13    7    8 1
    14    7   40 1
    15    7   41 1
    16    8    9 1
    17    9   14 ar
    18    9   10 ar
    19   10   11 ar
    20   10   42 1
    21   11   12 ar
    22   11   43 1
    23   12   13 ar
    24   12   15 1
    25   13   14 ar
    26   13   44 1
    27   14   45 1
    28   15   16 1
    29   15   30 1
    30   15   17 1
    31   17   18 1
    32   17   22 1
    33   17   19 1
    34   19   20 1
    35   19   46 1
    36   19   47 1
    37   20   21 2
    38   20   48 1
    39   21   22 1
    40   21   49 1
    41   22   23 1
    42   22   24 1
    43   24   29 ar
    44   24   25 ar
    45   25   26 ar
    46   25   50 1
    47   26   27 ar
    48   26   32 1
    49   27   28 ar
    50   27   51 1
    51   28   29 ar
    52   28   31 1
    53   29   30 1
    54   30   52 1
    55   32   33 2
    56   32   34 1
@<TRIPOS>MOLECULE
ZINC59364876
   61    64     0     0     0
SMALL
USER_CHARGES

@<TRIPOS>ATOM
      1 C1         -0.0187    1.5258    0.0104 C.3       1 <0>        -0.1435
      2 C2          0.0021   -0.0041    0.0020 C.3       1 <0>         0.0631
      3 O1          0.6709   -0.4649   -1.1737 O.3       1 <0>        -0.3411
      4 C3          0.7760   -1.8003   -1.3350 C.2       1 <0>         0.5364
      5 C4          1.4479   -2.3437   -2.5146 C.2       1 <0>        -0.4249
      6 C5          1.5694   -3.6963   -2.7163 C.2       1 <0>         0.3559
      7 O2          1.0651   -4.5753   -1.8202 O.3       1 <0>        -0.5878
      8 C6          2.2307   -4.1516   -3.8778 C.2       1 <0>        -0.1462
      9 C7          2.4594   -5.4391   -4.2706 C.2       1 <0>         0.0380
     10 C8          3.1707   -5.7073   -5.5218 C.2       1 <0>        -0.1499
     11 C9          3.7081   -4.7161   -6.4634 C.2       1 <0>        -0.1558
     12 C10         4.2772   -5.4077   -7.4649 C.2       1 <0>         0.0169
     13 N1          4.1381   -6.7461   -7.2237 N.pl3     1 <0>        -0.3978
     14 C11         3.4791   -6.9457   -6.0553 C.2       1 <0>         0.0594
     15 C12         3.1394   -8.2819   -5.4469 C.3       1 <0>        -0.0867
     16 C13         4.6125   -7.7650   -8.0606 C.ar      1 <0>         0.1061
     17 C14         5.8905   -8.2767   -7.8780 C.ar      1 <0>        -0.0950
     18 C15         6.3553   -9.2807   -8.7044 C.ar      1 <0>        -0.1201
     19 C16         5.5494   -9.7767   -9.7130 C.ar      1 <0>        -0.0715
     20 C17         4.2767   -9.2689   -9.8976 C.ar      1 <0>        -0.1168
     21 C18         3.8038   -8.2688   -9.0703 C.ar      1 <0>        -0.0612
     22 C19         2.4140   -7.7207   -9.2678 C.3       1 <0>        -0.1197
     23 C20         6.0597  -10.8724  -10.6130 C.3       1 <0>        -0.1166
     24 C21         4.9608   -4.8035   -8.6644 C.3       1 <0>        -0.0813
     25 S1          2.6949   -2.6443   -4.7100 S.3       1 <0>        -0.1099
     26 C22         2.0224   -1.4689   -3.5479 C.2       1 <0>         0.3074
     27 N2          2.0383   -0.1487   -3.6012 N.2       1 <0>        -0.5085
     28 C23         2.6282    0.4850   -4.6573 C.ar      1 <0>         0.1487
     29 C24         3.8745    0.0581   -5.1253 C.ar      1 <0>        -0.1619
     30 C25         4.4643    0.7027   -6.1921 C.ar      1 <0>        -0.0839
     31 C26         3.8253    1.7709   -6.7994 C.ar      1 <0>        -0.0718
     32 C27         2.5905    2.1991   -6.3410 C.ar      1 <0>        -0.0914
     33 C28         1.9861    1.5600   -5.2791 C.ar      1 <0>        -0.1200
     34 Cl1         4.5758    2.5772   -8.1411 Cl        1 <0>        -0.0925
     35 O3          0.3116   -2.5524   -0.4989 O.2       1 <0>        -0.5332
     36 H1          1.0039    1.9031    0.0027 H         1 <0>         0.0614
     37 H2         -0.5459    1.8868   -0.8726 H         1 <0>         0.0615
     38 H3         -0.5289    1.8773    0.9072 H         1 <0>         0.0652
     39 H4          0.5293   -0.3651    0.8851 H         1 <0>         0.0517
     40 H5         -1.0205   -0.3814    0.0098 H         1 <0>         0.0519
     41 H6          2.1156   -6.2597   -3.6583 H         1 <0>         0.1429
     42 H7          3.6554   -3.6415   -6.3693 H         1 <0>         0.1560
     43 H8          2.1641   -8.6081   -5.8080 H         1 <0>         0.0739
     44 H9          3.8956   -9.0135   -5.7315 H         1 <0>         0.0632
     45 H10         3.1128   -8.1905   -4.3610 H         1 <0>         0.0863
     46 H11         6.5204   -7.8896   -7.0907 H         1 <0>         0.1292
     47 H12         7.3492   -9.6788   -8.5631 H         1 <0>         0.1290
     48 H13         3.6498   -9.6580  -10.6863 H         1 <0>         0.1290
     49 H14         2.4494   -6.8829   -9.9643 H         1 <0>         0.0751
     50 H15         1.7694   -8.5016   -9.6712 H         1 <0>         0.0701
     51 H16         2.0180   -7.3810   -8.3108 H         1 <0>         0.0737
     52 H17         5.8078  -11.8421  -10.1836 H         1 <0>         0.0733
     53 H18         5.5982  -10.7795  -11.5961 H         1 <0>         0.0681
     54 H19         7.1420  -10.7881  -10.7103 H         1 <0>         0.0684
     55 H20         6.0188   -4.6595   -8.4453 H         1 <0>         0.0681
     56 H21         4.8543   -5.4724   -9.5184 H         1 <0>         0.0588
     57 H22         4.5036   -3.8417   -8.8969 H         1 <0>         0.0809
     58 H23         4.3742   -0.7743   -4.6523 H         1 <0>         0.1342
     59 H24         5.4271    0.3740   -6.5548 H         1 <0>         0.1259
     60 H25         2.0979    3.0327   -6.8193 H         1 <0>         0.1276
     61 H26         1.0210    1.8919   -4.9257 H         1 <0>         0.1316
@<TRIPOS>BOND
     1    1    2 1
     2    1   36 1
     3    1   37 1
     4    1   38 1
     5    2    3 1
     6    2   39 1
     7    2   40 1
     8    3    4 1
     9    4    5 1
    10    4   35 2
    11    5   26 1
    12    5    6 2
    13    6    7 1
    14    6    8 1
    15    8    9 2
    16    8   25 1
    17    9   10 1
    18    9   41 1
    19   10   14 2
    20   10   11 1
    21   11   12 2
    22   11   42 1
    23   12   13 1
    24   12   24 1
    25   13   14 1
    26   13   16 1
    27   14   15 1
    28   15   43 1
    29   15   44 1
    30   15   45 1
    31   16   21 ar
    32   16   17 ar
    33   17   18 ar
    34   17   46 1
    35   18   19 ar
    36   18   47 1
    37   19   20 ar
    38   19   23 1
    39   20   21 ar
    40   20   48 1
    41   21   22 1
    42   22   49 1
    43   22   50 1
    44   22   51 1
    45   23   52 1
    46   23   53 1
    47   23   54 1
    48   24   55 1
    49   24   56 1
    50   24   57 1
    51   25   26 1
    52   26   27 2
    53   27   28 1
    54   28   33 ar
    55   28   29 ar
    56   29   30 ar
    57   29   58 1
    58   30   31 ar
    59   30   59 1
    60   31   32 ar
    61   31   34 1
    62   32   33 ar
    63   32   60 1
    64   33   61 1
@<TRIPOS>MOLECULE
ZINC20459694
   56    58     0     0     0
SMALL
USER_CHARGES

@<TRIPOS>ATOM
      1 C1         -0.1843    1.5790    0.1718 C.3       1 <0>        -0.1781
      2 C2         -0.1167    0.0506    0.1631 C.3       1 <0>         0.0704
      3 H1          0.3579   -0.2974    1.0805 H         1 <0>         0.1023
      4 C3         -1.5114   -0.5134    0.0739 C.2       1 <0>         0.5149
      5 O1         -1.8491   -1.1440   -0.9055 O.2       1 <0>        -0.4840
      6 N1         -2.3834   -0.3170    1.0826 N.am      1 <0>        -0.6703
      7 C4         -3.6392   -0.9336    1.0518 C.ar      1 <0>         0.1790
      8 C5         -4.7491   -0.2779    1.5682 C.ar      1 <0>        -0.1663
      9 C6         -5.9872   -0.8892    1.5364 C.ar      1 <0>        -0.0034
     10 C7         -6.1222   -2.1527    0.9911 C.ar      1 <0>        -0.6269
     11 C8         -5.0189   -2.8085    0.4765 C.ar      1 <0>        -0.0023
     12 C9         -3.7791   -2.2001    0.4997 C.ar      1 <0>        -0.1432
     13 S1         -7.7035   -2.9291    0.9524 S.o2      1 <0>         2.6059
     14 O2         -7.4672   -4.3288    0.8864 O.2       1 <0>        -1.0236
     15 O3         -8.4733   -2.3345    1.9882 O.2       1 <0>        -1.0247
     16 N2         -8.4234   -2.5028   -0.4767 N.2       1 <0>        -1.0802
     17 C10        -9.7006   -2.9773   -0.7841 C.ar      1 <0>         0.3022
     18 C11       -10.3703   -3.8022    0.1105 C.ar      1 <0>        -0.2539
     19 C12       -11.6343   -4.2700   -0.1961 C.ar      1 <0>         0.0399
     20 C13       -12.2326   -3.9172   -1.3930 C.ar      1 <0>        -0.2118
     21 C14       -11.5675   -3.0959   -2.2863 C.ar      1 <0>         0.0247
     22 C15       -10.3056   -2.6206   -1.9823 C.ar      1 <0>        -0.1685
     23 Cl1       -12.3214   -2.6567   -3.7872 Cl        1 <0>        -0.0912
     24 Cl2       -12.4719   -5.3015    0.9212 Cl        1 <0>        -0.0923
     25 O4          0.6465   -0.3861   -0.9633 O.3       1 <0>        -0.2803
     26 C16         1.9964   -0.4332   -0.8131 C.ar      1 <0>         0.1299
     27 C17         2.5824    0.0343    0.3545 C.ar      1 <0>        -0.2100
     28 C18         3.9545   -0.0151    0.5050 C.ar      1 <0>        -0.0852
     29 C19         4.7441   -0.5299   -0.5069 C.ar      1 <0>        -0.1546
     30 C20         4.1627   -0.9959   -1.6714 C.ar      1 <0>        -0.0782
     31 C21         2.7902   -0.9539   -1.8244 C.ar      1 <0>        -0.0987
     32 C22         2.1566   -1.4678   -3.0915 C.3       1 <0>        -0.0569
     33 C23         2.6909   -0.6757   -4.2865 C.3       1 <0>        -0.1411
     34 C24         2.4974   -2.9489   -3.2679 C.3       1 <0>        -0.1415
     35 H2          0.8244    1.9870    0.2363 H         1 <0>         0.0792
     36 H3         -0.6590    1.9270   -0.7457 H         1 <0>         0.0786
     37 H4         -0.7665    1.9121    1.0310 H         1 <0>         0.0795
     38 H5         -2.1406    0.2517    1.8299 H         1 <0>         0.4113
     39 H6         -4.6442    0.7088    1.9946 H         1 <0>         0.1311
     40 H7         -6.8507   -0.3799    1.9381 H         1 <0>         0.1428
     41 H8         -5.1275   -3.7954    0.0516 H         1 <0>         0.1419
     42 H9         -2.9187   -2.7106    0.0930 H         1 <0>         0.1363
     43 H10        -9.9037   -4.0782    1.0446 H         1 <0>         0.1146
     44 H11       -13.2204   -4.2839   -1.6305 H         1 <0>         0.1251
     45 H12        -9.7889   -1.9757   -2.6778 H         1 <0>         0.1304
     46 H13         1.9662    0.4367    1.1449 H         1 <0>         0.1286
     47 H14         4.4111    0.3489    1.4134 H         1 <0>         0.1239
     48 H15         5.8168   -0.5677   -0.3874 H         1 <0>         0.1228
     49 H16         4.7816   -1.3972   -2.4603 H         1 <0>         0.1283
     50 H17         1.0748   -1.3486   -3.0310 H         1 <0>         0.0904
     51 H18         2.2327   -1.0474   -5.2030 H         1 <0>         0.0587
     52 H19         2.4481    0.3795   -4.1609 H         1 <0>         0.0541
     53 H20         3.7727   -0.7949   -4.3470 H         1 <0>         0.0535
     54 H21         2.1168   -3.5132   -2.4166 H         1 <0>         0.0551
     55 H22         2.0392   -3.3206   -4.1844 H         1 <0>         0.0591
     56 H23         3.5792   -3.0681   -3.3283 H         1 <0>         0.0532
@<TRIPOS>BOND
     1    1    2 1
     2    1   35 1
     3    1   36 1
     4    1   37 1
     5    2    3 1
     6    2    4 1
     7    2   25 1
     8    4    5 2
     9    4    6 am
    10    6    7 1
    11    6   38 1
    12    7   12 ar
    13    7    8 ar
    14    8    9 ar
    15    8   39 1
    16    9   10 ar
    17    9   40 1
    18   10   11 ar
    19   10   13 1
    20   11   12 ar
    21   11   41 1
    22   12   42 1
    23   13   14 2
    24   13   15 2
    25   13   16 1
    26   16   17 1
    27   17   22 ar
    28   17   18 ar
    29   18   19 ar
    30   18   43 1
    31   19   20 ar
    32   19   24 1
    33   20   21 ar
    34   20   44 1
    35   21   22 ar
    36   21   23 1
    37   22   45 1
    38   25   26 1
    39   26   31 ar
    40   26   27 ar
    41   27   28 ar
    42   27   46 1
    43   28   29 ar
    44   28   47 1
    45   29   30 ar
    46   29   48 1
    47   30   31 ar
    48   30   49 1
    49   31   32 1
    50   32   33 1
    51   32   34 1
    52   32   50 1
    53   33   51 1
    54   33   52 1
    55   33   53 1
    56   34   54 1
    57   34   55 1
    58   34   56 1
@<TRIPOS>MOLECULE
ZINC26548302
   39    42     0     0     0
SMALL
USER_CHARGES
3,5-dichloro-N-[4-(2-cyclopropyloxazol-5-yl)phenyl]benzenesulfonamide
@<TRIPOS>ATOM
      1 C1         -0.6495   -2.1669    0.1415 C.ar      1 <0>        -0.0718
      2 C2         -0.6836   -0.8235    0.4472 C.ar      1 <0>        -0.1602
      3 C3          0.0255    0.0859   -0.3294 C.ar      1 <0>         0.2393
      4 C4          0.7667   -0.3559   -1.4196 C.ar      1 <0>        -0.1589
      5 C5          0.8091   -1.6986   -1.7274 C.ar      1 <0>        -0.0796
      6 C6          0.0981   -2.6143   -0.9494 C.ar      1 <0>        -0.0897
      7 C7          0.1364   -4.0544   -1.2803 C.2       1 <0>         0.0391
      8 C8         -0.4962   -5.0548   -0.6149 C.2       1 <0>        -0.0568
      9 N1         -0.2024   -6.2048   -1.2405 N.2       1 <0>        -0.4822
     10 C9          0.5840   -5.9486   -2.2478 C.2       1 <0>         0.1684
     11 O1          0.8123   -4.6287   -2.2996 O.3       1 <0>        -0.2012
     12 C10         1.1466   -6.9717   -3.2006 C.3       1 <0>        -0.1557
     13 C11         0.6106   -8.4011   -3.0996 C.3       1 <0>        -0.1008
     14 C12         2.0243   -8.0780   -2.6119 C.3       1 <0>        -0.1068
     15 N2         -0.0114    1.4462   -0.0174 N.2       1 <0>        -1.0792
     16 S1          0.8391    2.0210    1.2820 S.o2      1 <0>         2.5903
     17 O2          0.6477    3.4290    1.3021 O.2       1 <0>        -0.9901
     18 O3          0.5046    1.1909    2.3858 O.2       1 <0>        -1.0275
     19 C13         2.5477    1.7499    0.9475 C.ar      1 <0>        -0.6296
     20 C14         3.1364    0.5472    1.2905 C.ar      1 <0>        -0.0128
     21 C15         4.4766    0.3316    1.0229 C.ar      1 <0>        -0.0455
     22 C16         5.2301    1.3239    0.4220 C.ar      1 <0>        -0.0742
     23 C17         4.6417    2.5294    0.0842 C.ar      1 <0>        -0.0477
     24 C18         3.3001    2.7420    0.3475 C.ar      1 <0>        -0.0134
     25 Cl1         5.5863    3.7752   -0.6705 Cl        1 <0>        -0.0647
     26 Cl2         5.2141   -1.1816    1.4473 Cl        1 <0>        -0.0632
     27 H1         -1.2009   -2.8728    0.7450 H         1 <0>         0.1154
     28 H2         -1.2620   -0.4767    1.2908 H         1 <0>         0.1264
     29 H3          1.3129    0.3535   -2.0237 H         1 <0>         0.1172
     30 H4          1.3880   -2.0416   -2.5721 H         1 <0>         0.1112
     31 H5         -1.1229   -4.9447    0.2577 H         1 <0>         0.1812
     32 H6          1.2549   -6.2302   -4.0058 H         1 <0>         0.1372
     33 H7         -0.2896   -8.4113   -2.4674 H         1 <0>         0.1173
     34 H8          0.3571   -8.7695   -4.1046 H         1 <0>         0.1106
     35 H9          2.9395   -8.1792   -3.2137 H         1 <0>         0.1111
     36 H10         2.2929   -7.8211   -1.5766 H         1 <0>         0.1047
     37 H11         2.5490   -0.2260    1.7633 H         1 <0>         0.1479
     38 H12         6.2773    1.1577    0.2170 H         1 <0>         0.1426
     39 H13         2.8407    3.6831    0.0838 H         1 <0>         0.1517
@<TRIPOS>BOND
     1    1    6 ar
     2    1    2 ar
     3    1   27 1
     4    2    3 ar
     5    2   28 1
     6    3    4 ar
     7    3   15 1
     8    4    5 ar
     9    4   29 1
    10    5    6 ar
    11    5   30 1
    12    6    7 1
    13    7   11 1
    14    7    8 2
    15    8    9 1
    16    8   31 1
    17    9   10 2
    18   10   11 1
    19   10   12 1
    20   12   14 1
    21   12   13 1
    22   12   32 1
    23   13   14 1
    24   13   33 1
    25   13   34 1
    26   14   35 1
    27   14   36 1
    28   15   16 1
    29   16   17 2
    30   16   18 2
    31   16   19 1
    32   19   24 ar
    33   19   20 ar
    34   20   21 ar
    35   20   37 1
    36   21   22 ar
    37   21   26 1
    38   22   23 ar
    39   22   38 1
    40   23   24 ar
    41   23   25 1
    42   24   39 1
@<TRIPOS>MOLECULE
ZINC34920020
   42    46     0     0     0
SMALL
USER_CHARGES

@<TRIPOS>ATOM
      1 C1         -0.3637    0.7444    1.1338 C.2       1 <0>        -0.1467
      2 C2          0.6924    1.5503    0.7520 C.2       1 <0>        -0.1576
      3 C3          1.9063    0.9860    0.5389 C.2       1 <0>        -0.1142
      4 S1          1.5783   -0.7354    0.8801 S.3       1 <0>         0.0487
      5 C4         -0.1544   -0.5864    1.2837 C.2       1 <0>        -0.1922
      6 C5          3.1975    1.6415    0.1216 C.3       1 <0>         0.3102
      7 H1          2.9939    2.6020   -0.3517 H         1 <0>         0.1029
      8 C6          4.0943    1.8337    1.3223 C.2       1 <0>        -0.4899
      9 C7          3.7978    2.6302    2.5166 C.2       1 <0>         0.5077
     10 C8          3.6285    4.0937    2.4052 C.ar      1 <0>        -0.1482
     11 C9          3.8576    4.7352    1.1852 C.ar      1 <0>        -0.0384
     12 C10         3.6983    6.1005    1.0871 C.ar      1 <0>        -0.1677
     13 C11         3.3117    6.8377    2.1965 C.ar      1 <0>         0.1105
     14 C12         3.0834    6.2062    3.4100 C.ar      1 <0>        -0.1679
     15 C13         3.2332    4.8406    3.5180 C.ar      1 <0>        -0.0438
     16 F1          3.1574    8.1760    2.0947 F         1 <0>        -0.1421
     17 O1          3.6910    2.0861    3.5998 O.2       1 <0>        -0.4592
     18 C14         5.2246    1.1278    1.0824 C.2       1 <0>         0.2780
     19 O2          6.2851    1.0383    1.9177 O.3       1 <0>        -0.6247
     20 C15         5.1156    0.4703   -0.2359 C.2       1 <0>         0.5142
     21 O3          5.9689   -0.2356   -0.7355 O.2       1 <0>        -0.4771
     22 N1          3.9317    0.7680   -0.8014 N.am      1 <0>        -0.5077
     23 C16         3.4853    0.3287   -2.0353 C.2       1 <0>         0.4173
     24 N2          2.3495    0.5884   -2.6403 N.2       1 <0>        -0.5467
     25 C17         2.0436    0.0869   -3.8564 C.ar      1 <0>         0.1287
     26 C18         0.8647    0.2867   -4.6118 C.ar      1 <0>        -0.0638
     27 C19         0.7118   -0.3010   -5.8400 C.ar      1 <0>        -0.0955
     28 C20         1.7003   -1.1093   -6.3856 C.ar      1 <0>        -0.0381
     29 C21         2.8669   -1.3264   -5.6738 C.ar      1 <0>        -0.0406
     30 C22         3.0282   -0.7409   -4.4428 C.ar      1 <0>        -0.1751
     31 S2          4.3118   -0.7302   -3.2143 S.3       1 <0>         0.0692
     32 Cl1         1.4748   -1.8402   -7.9439 Cl        1 <0>        -0.0631
     33 H2         -1.3401    1.1693    1.3142 H         1 <0>         0.1278
     34 H3          0.5524    2.6136    0.6251 H         1 <0>         0.1297
     35 H4         -0.8541   -1.3567    1.5727 H         1 <0>         0.1794
     36 H5          4.1593    4.1622    0.3209 H         1 <0>         0.1423
     37 H6          3.8751    6.5974    0.1446 H         1 <0>         0.1368
     38 H7          2.7829    6.7852    4.2708 H         1 <0>         0.1358
     39 H8          3.0505    4.3493    4.4623 H         1 <0>         0.1410
     40 H9          0.0760    0.9093   -4.2159 H         1 <0>         0.1401
     41 H10        -0.1984   -0.1321   -6.3962 H         1 <0>         0.1399
     42 H11         3.6453   -1.9527   -6.0839 H         1 <0>         0.1399
@<TRIPOS>BOND
     1    1    5 2
     2    1    2 1
     3    1   33 1
     4    2    3 2
     5    2   34 1
     6    3    4 1
     7    3    6 1
     8    4    5 1
     9    5   35 1
    10    6    8 1
    11    6   22 1
    12    6    7 1
    13    8   18 2
    14    8    9 1
    15    9   17 2
    16    9   10 1
    17   10   15 ar
    18   10   11 ar
    19   11   12 ar
    20   11   36 1
    21   12   13 ar
    22   12   37 1
    23   13   14 ar
    24   13   16 1
    25   14   15 ar
    26   14   38 1
    27   15   39 1
    28   18   20 1
    29   18   19 1
    30   20   22 am
    31   20   21 2
    32   22   23 1
    33   23   31 1
    34   23   24 2
    35   24   25 1
    36   25   30 ar
    37   25   26 ar
    38   26   27 ar
    39   26   40 1
    40   27   28 ar
    41   27   41 1
    42   28   29 ar
    43   28   32 1
    44   29   30 ar
    45   29   42 1
    46   30   31 1
@<TRIPOS>MOLECULE
ZINC39556301
   48    51     0     0     0
SMALL
USER_CHARGES

@<TRIPOS>ATOM
      1 C1         -0.0178    1.4608    0.0101 C.3       1 <0>         0.0947
      2 N1          0.0021   -0.0041    0.0020 N.am      1 <0>        -0.5759
      3 C2         -1.0828   -0.8092    0.0026 C.2       1 <0>         0.5115
      4 O1         -2.2529   -0.4696    0.0104 O.2       1 <0>        -0.5224
      5 C3         -0.5550   -2.1804   -0.0082 C.2       1 <0>        -0.0327
      6 C4         -1.2849   -3.3522   -0.0119 C.2       1 <0>         0.0074
      7 C5         -0.6180   -4.6023   -0.0226 C.2       1 <0>        -0.1557
      8 C6          0.7447   -4.8130   -0.0242 C.2       1 <0>         0.1163
      9 N2          0.9960   -6.1460   -0.0357 N.pl3     1 <0>        -0.4757
     10 C7         -0.1842   -6.8614   -0.0421 C.ar      1 <0>         0.0866
     11 C8         -1.2430   -5.9396   -0.0278 C.ar      1 <0>        -0.0817
     12 C9         -2.5605   -6.3885   -0.0249 C.ar      1 <0>        -0.0746
     13 C10        -2.8204   -7.7421   -0.0323 C.ar      1 <0>        -0.1474
     14 C11        -1.7760   -8.6546   -0.0427 C.ar      1 <0>        -0.1108
     15 C12        -0.4670   -8.2235   -0.0539 C.ar      1 <0>        -0.1261
     16 C13         2.3338   -6.7430   -0.0410 C.3       1 <0>         0.1145
     17 C14         2.7483   -7.0527   -1.4809 C.3       1 <0>        -0.1388
     18 C15         4.1455   -7.6762   -1.4864 C.3       1 <0>         0.0630
     19 O2          4.5327   -7.9655   -2.8312 O.3       1 <0>        -0.2994
     20 C16         5.7569   -8.5272   -3.0137 C.ar      1 <0>         0.1437
     21 C17         6.5662   -8.7997   -1.9207 C.ar      1 <0>        -0.1993
     22 C18         7.8099   -9.3710   -2.1085 C.ar      1 <0>        -0.0746
     23 C19         8.2490   -9.6712   -3.3849 C.ar      1 <0>        -0.1494
     24 C20         7.4452   -9.4006   -4.4766 C.ar      1 <0>        -0.0735
     25 C21         6.1971   -8.8345   -4.2938 C.ar      1 <0>        -0.0716
     26 Cl1         5.1848   -8.5014   -5.6642 Cl        1 <0>        -0.0555
     27 N3          0.8081   -2.0585   -0.0142 N.2       1 <0>        -0.5551
     28 C22         1.1251   -0.7912   -0.0134 C.2       1 <0>         0.4954
     29 S1          2.7759   -0.1751   -0.0257 S.3       1 <0>        -0.7794
     30 H1          1.0048    1.8381    0.0023 H         1 <0>         0.1025
     31 H2         -0.5450    1.8219   -0.8730 H         1 <0>         0.0586
     32 H3         -0.5280    1.8123    0.9069 H         1 <0>         0.0587
     33 H4         -2.3643   -3.3160   -0.0067 H         1 <0>         0.1291
     34 H5          1.4957   -4.0369   -0.0178 H         1 <0>         0.2083
     35 H6         -3.3752   -5.6797   -0.0164 H         1 <0>         0.1217
     36 H7         -3.8416   -8.0936   -0.0296 H         1 <0>         0.1191
     37 H8         -1.9906   -9.7130   -0.0484 H         1 <0>         0.1197
     38 H9          0.3387   -8.9427   -0.0604 H         1 <0>         0.1138
     39 H10         3.0452   -6.0445    0.3996 H         1 <0>         0.0998
     40 H11         2.3225   -7.6651    0.5402 H         1 <0>         0.0873
     41 H12         2.0370   -7.7513   -1.9215 H         1 <0>         0.0814
     42 H13         2.7596   -6.1307   -2.0620 H         1 <0>         0.0885
     43 H14         4.8569   -6.9777   -1.0458 H         1 <0>         0.0715
     44 H15         4.1342   -8.5983   -0.9053 H         1 <0>         0.0663
     45 H16         6.2244   -8.5649   -0.9234 H         1 <0>         0.1377
     46 H17         8.4401   -9.5832   -1.2575 H         1 <0>         0.1314
     47 H18         9.2218  -10.1175   -3.5292 H         1 <0>         0.1326
     48 H19         7.7907   -9.6353   -5.4725 H         1 <0>         0.1387
@<TRIPOS>BOND
     1    1    2 1
     2    1   30 1
     3    1   31 1
     4    1   32 1
     5    2   28 1
     6    2    3 am
     7    3    4 2
     8    3    5 1
     9    5    6 2
    10    5   27 1
    11    6    7 1
    12    6   33 1
    13    7   11 1
    14    7    8 2
    15    8    9 1
    16    8   34 1
    17    9   10 1
    18    9   16 1
    19   10   15 ar
    20   10   11 ar
    21   11   12 ar
    22   12   13 ar
    23   12   35 1
    24   13   14 ar
    25   13   36 1
    26   14   15 ar
    27   14   37 1
    28   15   38 1
    29   16   17 1
    30   16   39 1
    31   16   40 1
    32   17   18 1
    33   17   41 1
    34   17   42 1
    35   18   19 1
    36   18   43 1
    37   18   44 1
    38   19   20 1
    39   20   25 ar
    40   20   21 ar
    41   21   22 ar
    42   21   45 1
    43   22   23 ar
    44   22   46 1
    45   23   24 ar
    46   23   47 1
    47   24   25 ar
    48   24   48 1
    49   25   26 1
    50   27   28 2
    51   28   29 1
@<TRIPOS>MOLECULE
ZINC33402260
   43    46     0     0     0
SMALL
USER_CHARGES

@<TRIPOS>ATOM
      1 C1         -0.6561    2.2026    1.5824 C.ar      1 <0>        -0.1212
      2 C2          0.5542    2.8432    1.3934 C.ar      1 <0>        -0.1313
      3 C3          1.6736    2.1147    1.0368 C.ar      1 <0>        -0.0980
      4 C4          1.5828    0.7454    0.8698 C.ar      1 <0>        -0.0998
      5 C5          0.3727    0.1047    1.0597 C.ar      1 <0>        -0.0902
      6 C6         -0.7470    0.8334    1.4149 C.ar      1 <0>        -0.1289
      7 C7          2.8028   -0.0487    0.4801 C.3       1 <0>         0.1483
      8 N1          3.5051   -0.4891    1.6880 N.am      1 <0>        -0.5800
      9 C8          4.4597    0.2962    2.2327 C.2       1 <0>         0.5558
     10 O1          4.7489    1.3692    1.7356 O.2       1 <0>        -0.5066
     11 C9          5.1390   -0.1857    3.4462 C.2       1 <0>        -0.2128
     12 C10         6.1361    0.5703    4.0670 C.2       1 <0>         0.0587
     13 C11         6.6363    1.7166    3.4410 C.2       1 <0>         0.0146
     14 C12         6.9999    2.9008    4.0752 C.2       1 <0>        -0.1665
     15 C13         7.4409    3.7693    3.0819 C.2       1 <0>        -0.1856
     16 C14         7.3353    3.0974    1.8792 C.2       1 <0>         0.0288
     17 O2          6.8559    1.8649    2.1162 O.3       1 <0>        -0.0982
     18 C15         7.6949    3.6405    0.5563 C.ar      1 <0>         0.0119
     19 C16         7.2174    4.8924    0.1574 C.ar      1 <0>        -0.0767
     20 C17         7.5578    5.3946   -1.0805 C.ar      1 <0>        -0.1026
     21 C18         8.3703    4.6630   -1.9296 C.ar      1 <0>        -0.0949
     22 C19         8.8479    3.4224   -1.5434 C.ar      1 <0>        -0.0320
     23 C20         8.5200    2.9084   -0.3032 C.ar      1 <0>        -0.0169
     24 Cl1         9.1251    1.3557    0.1835 Cl        1 <0>        -0.0287
     25 Cl2         9.8657    2.5135   -2.6166 Cl        1 <0>        -0.0468
     26 C21         4.7418   -1.4498    3.9635 C.2       1 <0>         0.4893
     27 O3          5.3256   -1.9484    5.0743 O.3       1 <0>        -0.6384
     28 N2          3.7929   -2.1301    3.3425 N.2       1 <0>        -0.6655
     29 C22         3.1914   -1.6683    2.2492 C.2       1 <0>         0.6697
     30 O4          2.3216   -2.3469    1.7317 O.2       1 <0>        -0.5695
     31 H1         -1.5296    2.7712    1.8653 H         1 <0>         0.1166
     32 H2          0.6251    3.9129    1.5239 H         1 <0>         0.1169
     33 H3          2.6190    2.6152    0.8884 H         1 <0>         0.1246
     34 H4          0.3017   -0.9650    0.9289 H         1 <0>         0.1317
     35 H5         -1.6925    0.3329    1.5629 H         1 <0>         0.1194
     36 H6          2.4993   -0.9191   -0.1015 H         1 <0>         0.0983
     37 H7          3.4663    0.5751   -0.1188 H         1 <0>         0.0884
     38 H8          6.5208    0.2696    5.0303 H         1 <0>         0.1751
     39 H9          6.9492    3.1061    5.1343 H         1 <0>         0.1577
     40 H10         7.7981    4.7786    3.2240 H         1 <0>         0.1521
     41 H11         6.5828    5.4648    0.8177 H         1 <0>         0.1445
     42 H12         7.1891    6.3617   -1.3890 H         1 <0>         0.1444
     43 H13         8.6325    5.0620   -2.8984 H         1 <0>         0.1444
@<TRIPOS>BOND
     1    1    6 ar
     2    1    2 ar
     3    1   31 1
     4    2    3 ar
     5    2   32 1
     6    3    4 ar
     7    3   33 1
     8    4    5 ar
     9    4    7 1
    10    5    6 ar
    11    5   34 1
    12    6   35 1
    13    7    8 1
    14    7   36 1
    15    7   37 1
    16    8   29 am
    17    8    9 am
    18    9   10 2
    19    9   11 1
    20   11   12 2
    21   11   26 1
    22   12   13 1
    23   12   38 1
    24   13   17 1
    25   13   14 2
    26   14   15 1
    27   14   39 1
    28   15   16 2
    29   15   40 1
    30   16   17 1
    31   16   18 1
    32   18   23 ar
    33   18   19 ar
    34   19   20 ar
    35   19   41 1
    36   20   21 ar
    37   20   42 1
    38   21   22 ar
    39   21   43 1
    40   22   23 ar
    41   22   25 1
    42   23   24 1
    43   26   27 1
    44   26   28 2
    45   28   29 1
    46   29   30 2
@<TRIPOS>MOLECULE
ZINC64668098
   49    52     0     0     0
SMALL
USER_CHARGES

@<TRIPOS>ATOM
      1 C1         -0.0184    1.5028    0.0103 C.3       1 <0>        -0.1043
      2 C2          0.0021   -0.0041    0.0020 C.ar      1 <0>        -0.0558
      3 C3          0.0057   -0.6882   -1.2000 C.ar      1 <0>        -0.2282
      4 C4          0.0240   -2.0707   -1.2121 C.ar      1 <0>        -0.0656
      5 C5          0.0391   -2.7732   -0.0230 C.ar      1 <0>        -0.2696
      6 C6          0.0360   -2.0893    1.1859 C.ar      1 <0>         0.2825
      7 C7          0.0228   -0.7000    1.1944 C.ar      1 <0>        -0.1834
      8 N1          0.0513   -2.7965    2.3902 N.2       1 <0>        -1.0930
      9 S1          0.0732   -4.4524    2.3779 S.o2      1 <0>         2.6291
     10 O1         -1.1695   -4.8709    1.8301 O.2       1 <0>        -1.0325
     11 O2          1.3210   -4.8378    1.8179 O.2       1 <0>        -1.0354
     12 C8          0.0885   -4.9857    4.0572 C.2       1 <0>        -0.6905
     13 C9         -0.9232   -5.7112    4.7037 C.2       1 <0>        -0.0165
     14 C10        -0.5161   -5.9178    5.9905 C.2       1 <0>         0.0308
     15 N2          0.7184   -5.3347    6.1393 N.pl3     1 <0>        -0.4379
     16 C11         1.0795   -4.7741    4.9514 C.2       1 <0>         0.1837
     17 C12         2.3664   -4.0380    4.6809 C.3       1 <0>        -0.1139
     18 C13         1.5158   -5.3225    7.3681 C.3       1 <0>         0.0617
     19 C14        -1.2668   -6.6366    7.0327 C.2       1 <0>         0.2263
     20 N3         -2.4527   -7.2246    6.9578 N.2       1 <0>        -0.4958
     21 C15        -2.9832   -7.8310    8.0038 C.2       1 <0>         0.1137
     22 C16        -2.2961   -7.8534    9.1890 C.2       1 <0>        -0.2147
     23 S2         -0.8184   -6.9554    8.7334 S.3       1 <0>        -0.0161
     24 C17        -4.3119   -8.4820    7.8968 C.ar      1 <0>        -0.0262
     25 C18        -4.8715   -9.1157    9.0049 C.ar      1 <0>        -0.1055
     26 C19        -6.1082   -9.7192    8.8997 C.ar      1 <0>        -0.1240
     27 C20        -6.7921   -9.6960    7.6976 C.ar      1 <0>        -0.1153
     28 C21        -6.2413   -9.0690    6.5944 C.ar      1 <0>        -0.1217
     29 C22        -5.0078   -8.4572    6.6896 C.ar      1 <0>        -0.0829
     30 H1          1.0042    1.8801    0.0026 H         1 <0>         0.0589
     31 H2         -0.5455    1.8639   -0.8728 H         1 <0>         0.0547
     32 H3         -0.5286    1.8543    0.9071 H         1 <0>         0.0575
     33 H4         -0.0061   -0.1414   -2.1312 H         1 <0>         0.0983
     34 H5          0.0260   -2.6019   -2.1525 H         1 <0>         0.0996
     35 H6          0.0530   -3.8531   -0.0331 H         1 <0>         0.0951
     36 H7          0.0245   -0.1651    2.1327 H         1 <0>         0.1091
     37 H8         -1.8521   -6.0444    4.2649 H         1 <0>         0.1603
     38 H9          2.2320   -2.9787    4.8999 H         1 <0>         0.0957
     39 H10         3.1563   -4.4425    5.3138 H         1 <0>         0.0702
     40 H11         2.6417   -4.1604    3.6334 H         1 <0>         0.1113
     41 H12         2.1636   -6.1989    7.3896 H         1 <0>         0.0810
     42 H13         2.1254   -4.4194    7.3967 H         1 <0>         0.0974
     43 H14         0.8519   -5.3402    8.2324 H         1 <0>         0.0824
     44 H15        -2.5697   -8.2951   10.1358 H         1 <0>         0.1978
     45 H16        -4.3383   -9.1347    9.9438 H         1 <0>         0.1226
     46 H17        -6.5426  -10.2109    9.7576 H         1 <0>         0.1239
     47 H18        -7.7596  -10.1697    7.6198 H         1 <0>         0.1221
     48 H19        -6.7795   -9.0542    5.6582 H         1 <0>         0.1262
     49 H20        -4.5807   -7.9640    5.8289 H         1 <0>         0.1366
@<TRIPOS>BOND
     1    1    2 1
     2    1   30 1
     3    1   31 1
     4    1   32 1
     5    2    7 ar
     6    2    3 ar
     7    3    4 ar
     8    3   33 1
     9    4    5 ar
    10    4   34 1
    11    5    6 ar
    12    5   35 1
    13    6    7 ar
    14    6    8 1
    15    7   36 1
    16    8    9 1
    17    9   10 2
    18    9   11 2
    19    9   12 1
    20   12   16 2
    21   12   13 1
    22   13   14 2
    23   13   37 1
    24   14   15 1
    25   14   19 1
    26   15   16 1
    27   15   18 1
    28   16   17 1
    29   17   38 1
    30   17   39 1
    31   17   40 1
    32   18   41 1
    33   18   42 1
    34   18   43 1
    35   19   23 1
    36   19   20 2
    37   20   21 1
    38   21   22 2
    39   21   24 1
    40   22   23 1
    41   22   44 1
    42   24   29 ar
    43   24   25 ar
    44   25   26 ar
    45   25   45 1
    46   26   27 ar
    47   26   46 1
    48   27   28 ar
    49   27   47 1
    50   28   29 ar
    51   28   48 1
    52   29   49 1
@<TRIPOS>MOLECULE
ZINC02449231
   44    47     0     0     0
SMALL
USER_CHARGES
N-(2-bromo-4-methyl-phenyl)-2-[[7-(4-chlorophenyl)-3,5,7,8-tetrazabicyclo[4.3.0]nona-2,4,8,10-tetraen-2-yl]sulfanyl]acetamide
@<TRIPOS>ATOM
      1 C1         -3.2608    2.7904   -7.0317 C.3       1 <0>        -0.1155
      2 C2         -2.4714    2.3867   -5.8132 C.ar      1 <0>        -0.0903
      3 C3         -2.4453    3.2117   -4.7035 C.ar      1 <0>        -0.0855
      4 C4         -1.7226    2.8452   -3.5851 C.ar      1 <0>        -0.1094
      5 C5         -1.0217    1.6465   -3.5750 C.ar      1 <0>         0.1645
      6 C6         -1.0454    0.8221   -4.6930 C.ar      1 <0>        -0.1138
      7 C7         -1.7745    1.1926   -5.8072 C.ar      1 <0>        -0.0740
      8 Br1        -0.0865   -0.8077   -4.6880 Br        1 <0>        -0.0422
      9 N1         -0.2884    1.2723   -2.4431 N.am      1 <0>        -0.6643
     10 C8         -0.7385    1.5903   -1.2131 C.2       1 <0>         0.5349
     11 O1         -1.7352    2.2703   -1.0891 O.2       1 <0>        -0.5001
     12 C9         -0.0035    1.1009    0.0081 C.3       1 <0>        -0.1540
     13 S1         -0.8478    1.6898    1.4968 S.3       1 <0>         0.0782
     14 C10         0.1933    0.9920    2.7353 C.ar      1 <0>         0.2288
     15 C11        -0.0794    1.1904    4.1035 C.ar      1 <0>        -0.2616
     16 C12        -1.0779    1.8772    4.8272 C.2       1 <0>         0.1167
     17 N2         -0.8424    1.7286    6.1003 N.2       1 <0>        -0.2298
     18 N3          0.3065    0.9478    6.2797 N.pl3     1 <0>        -0.3303
     19 C13         0.7883    0.6081    5.0476 C.ar      1 <0>         0.3602
     20 N4          1.8270   -0.1034    4.6128 N.ar      1 <0>        -0.5352
     21 C14         2.0409   -0.2610    3.3248 C.ar      1 <0>         0.3652
     22 N5          1.2523    0.2608    2.4021 N.ar      1 <0>        -0.5552
     23 C15         0.8653    0.5794    7.5104 C.ar      1 <0>         0.1569
     24 C16         1.4627   -0.6654    7.6583 C.ar      1 <0>        -0.0984
     25 C17         2.0176   -1.0241    8.8710 C.ar      1 <0>        -0.0886
     26 C18         1.9689   -0.1484    9.9415 C.ar      1 <0>        -0.0352
     27 C19         1.3695    1.0907    9.7983 C.ar      1 <0>        -0.0920
     28 C20         0.8178    1.4563    8.5862 C.ar      1 <0>        -0.0969
     29 Cl1         2.6605   -0.6053   11.4669 Cl        1 <0>        -0.0582
     30 H1         -2.6242    3.3680   -7.7020 H         1 <0>         0.0748
     31 H2         -3.6155    1.8978   -7.5470 H         1 <0>         0.0697
     32 H3         -4.1135    3.3974   -6.7276 H         1 <0>         0.0711
     33 H4         -2.9906    4.1439   -4.7117 H         1 <0>         0.1351
     34 H5         -1.7023    3.4905   -2.7193 H         1 <0>         0.1499
     35 H6         -1.7962    0.5509   -6.6756 H         1 <0>         0.1379
     36 H7          0.5437    0.7841   -2.5438 H         1 <0>         0.4169
     37 H8          0.0155    0.0110    0.0082 H         1 <0>         0.1349
     38 H9          1.0176    1.4821   -0.0054 H         1 <0>         0.1342
     39 H10        -1.8988    2.4324    4.3981 H         1 <0>         0.2100
     40 H11         2.8928   -0.8447    3.0086 H         1 <0>         0.2110
     41 H12         1.4969   -1.3509    6.8244 H         1 <0>         0.1439
     42 H13         2.4859   -1.9905    8.9854 H         1 <0>         0.1457
     43 H14         1.3328    1.7723   10.6353 H         1 <0>         0.1457
     44 H15         0.3495    2.4231    8.4751 H         1 <0>         0.1441
@<TRIPOS>BOND
     1    1    2 1
     2    1   30 1
     3    1   31 1
     4    1   32 1
     5    2    7 ar
     6    2    3 ar
     7    3    4 ar
     8    3   33 1
     9    4    5 ar
    10    4   34 1
    11    5    6 ar
    12    5    9 1
    13    6    7 ar
    14    6    8 1
    15    7   35 1
    16    9   10 am
    17    9   36 1
    18   10   11 2
    19   10   12 1
    20   12   13 1
    21   12   37 1
    22   12   38 1
    23   13   14 1
    24   14   22 ar
    25   14   15 ar
    26   15   19 ar
    27   15   16 1
    28   16   17 2
    29   16   39 1
    30   17   18 1
    31   18   19 1
    32   18   23 1
    33   19   20 ar
    34   20   21 ar
    35   21   22 ar
    36   21   40 1
    37   23   28 ar
    38   23   24 ar
    39   24   25 ar
    40   24   41 1
    41   25   26 ar
    42   25   42 1
    43   26   27 ar
    44   26   29 1
    45   27   28 ar
    46   27   43 1
    47   28   44 1
@<TRIPOS>MOLECULE
ZINC14017908
   46    49     0     0     0
SMALL
USER_CHARGES
(3R)-N-(4,5-dichloro-1,3-benzothiazol-2-yl)-1-(4-fluorophenyl)sulfonyl-piperidine-3-carboxamide
@<TRIPOS>ATOM
      1 C1          7.8378   -0.4256   -1.0342 C.ar      1 <0>        -0.1748
      2 C2          7.0294    0.5816   -0.5424 C.ar      1 <0>         0.0097
      3 C3          5.9749    0.2743    0.2971 C.ar      1 <0>        -0.6945
      4 C4          5.7309   -1.0399    0.6497 C.ar      1 <0>         0.0111
      5 C5          6.5342   -2.0494    0.1542 C.ar      1 <0>        -0.1736
      6 C6          7.5910   -1.7428   -0.6863 C.ar      1 <0>         0.1588
      7 F1          8.3809   -2.7282   -1.1663 F         1 <0>        -0.1273
      8 S1          4.9454    1.5596    0.9240 S.o2      1 <0>         2.6933
      9 O1          5.7169    2.7523    0.8874 O.2       1 <0>        -0.9478
     10 O2          4.3630    1.0655    2.1223 O.2       1 <0>        -0.9476
     11 N1          3.7060    1.7643   -0.1551 N.pl3     1 <0>        -0.9973
     12 C7          3.8332    2.7128   -1.2700 C.3       1 <0>         0.1108
     13 C8          2.6396    3.6726   -1.2395 C.3       1 <0>        -0.1296
     14 C9          1.3400    2.8645   -1.2468 C.3       1 <0>        -0.1142
     15 C10         1.2803    1.9797    0.0005 C.3       1 <0>        -0.1135
     16 H1          1.3380    2.6033    0.8926 H         1 <0>         0.1163
     17 C11         2.4585    1.0007   -0.0160 C.3       1 <0>         0.1348
     18 C12        -0.0144    1.2085    0.0087 C.2       1 <0>         0.5164
     19 O3          0.0021   -0.0041    0.0020 O.2       1 <0>        -0.4523
     20 N2         -1.1906    1.8664    0.0178 N.am      1 <0>        -0.6159
     21 C13        -2.3810    1.1574    0.0196 C.2       1 <0>         0.3841
     22 N3         -2.5652   -0.1420    0.0077 N.2       1 <0>        -0.4989
     23 C14        -3.7949   -0.7011    0.0163 C.ar      1 <0>         0.1265
     24 C15        -4.8795    0.2052    0.0263 C.ar      1 <0>        -0.1461
     25 S2         -4.0564    1.7797    0.0310 S.3       1 <0>         0.0337
     26 C16        -6.1890   -0.2059    0.0303 C.ar      1 <0>        -0.0412
     27 C17        -6.4810   -1.5577    0.0244 C.ar      1 <0>        -0.0851
     28 C18        -5.4417   -2.4777    0.0144 C.ar      1 <0>        -0.0195
     29 C19        -4.1292   -2.0757    0.0108 C.ar      1 <0>         0.0104
     30 Cl1        -2.8662   -3.2667   -0.0017 Cl        1 <0>        -0.0196
     31 Cl2        -5.8098   -4.1742    0.0070 Cl        1 <0>        -0.0338
     32 H2          8.6616   -0.1853   -1.6901 H         1 <0>         0.1481
     33 H3          7.2217    1.6091   -0.8136 H         1 <0>         0.1509
     34 H4          4.9097   -1.2783    1.3094 H         1 <0>         0.1515
     35 H5          6.3405   -3.0765    0.4259 H         1 <0>         0.1485
     36 H6          4.7593    3.2779   -1.1652 H         1 <0>         0.0996
     37 H7          3.8425    2.1679   -2.2140 H         1 <0>         0.0758
     38 H8          2.6848    4.2807   -0.3360 H         1 <0>         0.0763
     39 H9          2.6706    4.3197   -2.1160 H         1 <0>         0.0876
     40 H10         1.3069    2.2381   -2.1383 H         1 <0>         0.0782
     41 H11         0.4889    3.5455   -1.2500 H         1 <0>         0.0748
     42 H12         2.4776    0.4362    0.9162 H         1 <0>         0.1057
     43 H13         2.3532    0.3164   -0.8579 H         1 <0>         0.0869
     44 H14        -1.2037    2.8363    0.0232 H         1 <0>         0.4316
     45 H15        -6.9867    0.5220    0.0384 H         1 <0>         0.1516
     46 H16        -7.5073   -1.8942    0.0278 H         1 <0>         0.1597
@<TRIPOS>BOND
     1    1    6 ar
     2    1    2 ar
     3    1   32 1
     4    2    3 ar
     5    2   33 1
     6    3    4 ar
     7    3    8 1
     8    4    5 ar
     9    4   34 1
    10    5    6 ar
    11    5   35 1
    12    6    7 1
    13    8    9 2
    14    8   10 2
    15    8   11 1
    16   11   17 1
    17   11   12 1
    18   12   13 1
    19   12   36 1
    20   12   37 1
    21   13   14 1
    22   13   38 1
    23   13   39 1
    24   14   15 1
    25   14   40 1
    26   14   41 1
    27   15   16 1
    28   15   17 1
    29   15   18 1
    30   17   42 1
    31   17   43 1
    32   18   19 2
    33   18   20 am
    34   20   21 1
    35   20   44 1
    36   21   25 1
    37   21   22 2
    38   22   23 1
    39   23   29 ar
    40   23   24 ar
    41   24   25 1
    42   24   26 ar
    43   26   27 ar
    44   26   45 1
    45   27   28 ar
    46   27   46 1
    47   28   29 ar
    48   28   31 1
    49   29   30 1
@<TRIPOS>MOLECULE
ZINC08856120
   62    66     0     0     0
SMALL
USER_CHARGES
isopropyl (4S,7S)-2-methyl-4-(6-methyl-4-oxo-chromen-3-yl)-5-oxo-7-(2-thienyl)-4,6,7,8-tetrahydro-1H-quinoline-3-carboxylate
@<TRIPOS>ATOM
      1 C1          1.3639   -3.2571    6.7723 C.3       1 <0>        -0.1162
      2 C2          0.1219   -2.5091    6.3611 C.ar      1 <0>        -0.1138
      3 C3         -1.1288   -3.0437    6.6353 C.ar      1 <0>        -0.0603
      4 C4         -2.2764   -2.3743    6.2680 C.ar      1 <0>        -0.1365
      5 C5         -2.1860   -1.1512    5.6142 C.ar      1 <0>         0.1339
      6 C6         -0.9196   -0.6117    5.3369 C.ar      1 <0>        -0.2126
      7 C7          0.2336   -1.2979    5.7143 C.ar      1 <0>        -0.0330
      8 C8         -0.8503    0.6852    4.6361 C.2       1 <0>         0.4254
      9 O1          0.2189    1.2031    4.3623 O.2       1 <0>        -0.4472
     10 C9         -2.0817    1.3064    4.2980 C.2       1 <0>        -0.2678
     11 C10        -3.2404    0.6996    4.6128 C.2       1 <0>         0.1356
     12 O2         -3.2944   -0.4783    5.2434 O.3       1 <0>        -0.2211
     13 C11        -2.0904    2.6342    3.5853 C.3       1 <0>         0.1072
     14 H1         -1.0612    2.9714    3.3930 H         1 <0>         0.1069
     15 C12        -2.7824    3.6610    4.4490 C.2       1 <0>        -0.2784
     16 C13        -4.0516    4.0388    4.1868 C.2       1 <0>         0.2208
     17 C14        -4.7525    5.0594    5.0488 C.3       1 <0>        -0.0902
     18 C15        -4.2240    4.9714    6.4822 C.3       1 <0>         0.0103
     19 H2         -4.4543    3.9875    6.9168 H         1 <0>         0.1060
     20 C16        -2.7102    5.2074    6.4574 C.3       1 <0>        -0.1625
     21 C17        -2.0737    4.2031    5.5356 C.2       1 <0>         0.3990
     22 O3         -0.9268    3.8544    5.7336 O.2       1 <0>        -0.4488
     23 C18        -4.8869    6.0249    7.3319 C.2       1 <0>        -0.1461
     24 C19        -5.6521    5.8707    8.4401 C.2       1 <0>        -0.1473
     25 C20        -6.1611    6.9938    9.0647 C.2       1 <0>        -0.1583
     26 C21        -5.8801    8.2161    8.5506 C.2       1 <0>        -0.1679
     27 S1         -4.8616    7.8001    7.1445 S.3       1 <0>         0.0392
     28 N1         -4.7304    3.5033    3.1252 N.pl3     1 <0>        -0.6482
     29 C22        -4.0557    2.9065    2.0969 C.2       1 <0>         0.1834
     30 C23        -2.7919    2.4815    2.2677 C.2       1 <0>        -0.2285
     31 C24        -2.1122    1.8737    1.1863 C.2       1 <0>         0.5333
     32 O4         -1.2436    2.4851    0.5928 O.2       1 <0>        -0.4943
     33 O5         -2.4272    0.6158    0.8129 O.3       1 <0>        -0.3486
     34 C25        -1.7006    0.0645   -0.2872 C.3       1 <0>         0.0740
     35 C26        -2.4302    0.3864   -1.5930 C.3       1 <0>        -0.1713
     36 C27        -1.5977   -1.4530   -0.1213 C.3       1 <0>        -0.1494
     37 C28        -4.7334    2.7232    0.7634 C.3       1 <0>        -0.1327
     38 H3          1.0787   -4.1950    7.2714 H         1 <0>         0.0696
     39 H4          1.9526   -2.6376    7.4648 H         1 <0>         0.0735
     40 H5          1.9668   -3.4847    5.8809 H         1 <0>         0.0732
     41 H6         -1.2040   -3.9943    7.1423 H         1 <0>         0.1397
     42 H7         -3.2444   -2.7999    6.4874 H         1 <0>         0.1430
     43 H8          1.2076   -0.8828    5.5013 H         1 <0>         0.1408
     44 H9         -4.1672    1.1847    4.3443 H         1 <0>         0.1864
     45 H10        -4.5633    6.0673    4.6509 H         1 <0>         0.1063
     46 H11        -5.8345    4.8611    5.0456 H         1 <0>         0.0983
     47 H12        -2.5038    6.2257    6.0963 H         1 <0>         0.1047
     48 H13        -2.3039    5.0890    7.4728 H         1 <0>         0.1038
     49 H14        -5.8606    4.8852    8.8294 H         1 <0>         0.1338
     50 H15        -6.7733    6.8989    9.9493 H         1 <0>         0.1350
     51 H16        -6.1888    9.1894    8.9025 H         1 <0>         0.1863
     52 H17        -5.8289    3.5509    3.0943 H         1 <0>         0.4465
     53 H18        -0.7078    0.5372   -0.2580 H         1 <0>         0.0843
     54 H19        -1.8708   -0.0380   -2.4398 H         1 <0>         0.0767
     55 H20        -2.5042    1.4774   -1.7123 H         1 <0>         0.0605
     56 H21        -3.4401   -0.0488   -1.5656 H         1 <0>         0.0676
     57 H22        -1.0384   -1.8773   -0.9681 H         1 <0>         0.0795
     58 H23        -2.6076   -1.8882   -0.0940 H         1 <0>         0.0685
     59 H24        -1.0731   -1.6845    0.8175 H         1 <0>         0.0634
     60 H25        -4.0416    2.2291    0.0654 H         1 <0>         0.0847
     61 H26        -5.0216    3.7054    0.3605 H         1 <0>         0.0886
     62 H27        -5.6317    2.1013    0.8911 H         1 <0>         0.0912
@<TRIPOS>BOND
     1    1    2 1
     2    1   38 1
     3    1   39 1
     4    1   40 1
     5    2    7 ar
     6    2    3 ar
     7    3    4 ar
     8    3   41 1
     9    4    5 ar
    10    4   42 1
    11    5   12 1
    12    5    6 ar
    13    6    7 ar
    14    6    8 1
    15    7   43 1
    16    8    9 2
    17    8   10 1
    18   10   11 2
    19   10   13 1
    20   11   12 1
    21   11   44 1
    22   13   14 1
    23   13   30 1
    24   13   15 1
    25   15   21 1
    26   15   16 2
    27   16   17 1
    28   16   28 1
    29   17   18 1
    30   17   45 1
    31   17   46 1
    32   18   19 1
    33   18   20 1
    34   18   23 1
    35   20   21 1
    36   20   47 1
    37   20   48 1
    38   21   22 2
    39   23   27 1
    40   23   24 2
    41   24   25 1
    42   24   49 1
    43   25   26 2
    44   25   50 1
    45   26   27 1
    46   26   51 1
    47   28   29 1
    48   28   52 1
    49   29   30 2
    50   29   37 1
    51   30   31 1
    52   31   32 2
    53   31   33 1
    54   33   34 1
    55   34   35 1
    56   34   36 1
    57   34   53 1
    58   35   54 1
    59   35   55 1
    60   35   56 1
    61   36   57 1
    62   36   58 1
    63   36   59 1
    64   37   60 1
    65   37   61 1
    66   37   62 1
@<TRIPOS>MOLECULE
ZINC33807239
   60    64     0     0     0
SMALL
USER_CHARGES
(5E)-5-[[2-(cyclohexylamino)-9-methyl-4-oxo-pyrido[1,2-a]pyrimidin-3-yl]methylene]-3-[(4-fluorophenyl)methyl]-2-thioxo-thiazolidin-4-one
@<TRIPOS>ATOM
      1 C1         -4.6789   -0.1478    0.2813 C.3       1 <0>        -0.0931
      2 C2         -4.7335    1.3367    0.0272 C.2       1 <0>        -0.1155
      3 C3         -5.9293    1.9503   -0.2011 C.2       1 <0>        -0.0240
      4 C4         -5.9638    3.3317   -0.4358 C.2       1 <0>        -0.1714
      5 C5         -4.8175    4.0484   -0.4352 C.2       1 <0>         0.1074
      6 N1         -3.6168    3.4442   -0.2079 N.am      1 <0>        -0.4324
      7 C6         -3.5512    2.0984    0.0236 C.2       1 <0>         0.4442
      8 N2         -2.3859    1.4885    0.2428 N.2       1 <0>        -0.5782
      9 C7         -1.2425    2.1581    0.2567 C.2       1 <0>         0.5203
     10 C8         -1.2485    3.5534    0.0228 C.2       1 <0>        -0.4039
     11 C9         -2.4905    4.1894   -0.2141 C.2       1 <0>         0.5565
     12 O1         -2.5428    5.3898   -0.4199 O.2       1 <0>        -0.5242
     13 C10        -0.0436    4.2942    0.0261 C.2       1 <0>         0.1597
     14 C11         0.1826    5.2250    0.9984 C.2       1 <0>        -0.2472
     15 C12        -0.5947    5.5397    2.1494 C.2       1 <0>         0.5470
     16 O2         -1.6311    4.9448    2.3874 O.2       1 <0>        -0.4574
     17 N3         -0.1598    6.4951    2.9524 N.am      1 <0>        -0.5189
     18 C13         0.9904    7.1545    2.6888 C.2       1 <0>         0.2891
     19 S1          1.7360    8.4113    3.5806 S.2       1 <0>        -0.3498
     20 S2          1.5391    6.3751    1.1778 S.3       1 <0>         0.0574
     21 C14        -0.9351    6.8442    4.1454 C.3       1 <0>         0.1278
     22 C15        -0.4761    6.0013    5.3073 C.ar      1 <0>        -0.1315
     23 C16        -1.0814    4.7842    5.5593 C.ar      1 <0>        -0.0628
     24 C17        -0.6574    4.0078    6.6211 C.ar      1 <0>        -0.1600
     25 C18         0.3660    4.4547    7.4396 C.ar      1 <0>         0.1125
     26 C19         0.9677    5.6764    7.1895 C.ar      1 <0>        -0.1570
     27 C20         0.5462    6.4483    6.1235 C.ar      1 <0>        -0.0634
     28 F1          0.7770    3.6994    8.4817 F         1 <0>        -0.1365
     29 N4         -0.0556    1.4991    0.4916 N.pl3     1 <0>        -0.7014
     30 C21        -0.0553    0.0542    0.7332 C.3       1 <0>         0.1524
     31 C22        -0.3216   -0.2151    2.2156 C.3       1 <0>        -0.1267
     32 C23        -0.3213   -1.7241    2.4679 C.3       1 <0>        -0.1161
     33 C24         1.0397   -2.3057    2.0804 C.3       1 <0>        -0.1243
     34 C25         1.3061   -2.0365    0.5980 C.3       1 <0>        -0.1149
     35 C26         1.3058   -0.5274    0.3457 C.3       1 <0>        -0.1286
     36 H1         -5.6965   -0.5638    0.2443 H         1 <0>         0.0726
     37 H2         -4.2425   -0.3341    1.2737 H         1 <0>         0.0790
     38 H3         -4.0579   -0.6290   -0.4886 H         1 <0>         0.0792
     39 H4         -6.8440    1.3760   -0.2008 H         1 <0>         0.1547
     40 H5         -6.9075    3.8243   -0.6178 H         1 <0>         0.1617
     41 H6         -4.8534    5.1124   -0.6166 H         1 <0>         0.1817
     42 H7          0.7112    4.1202   -0.7550 H         1 <0>         0.1480
     43 H8         -0.7848    7.9079    4.3821 H         1 <0>         0.1221
     44 H9         -2.0026    6.6580    3.9564 H         1 <0>         0.1132
     45 H10        -1.8831    4.4382    4.9238 H         1 <0>         0.1349
     46 H11        -1.1277    3.0552    6.8154 H         1 <0>         0.1366
     47 H12         1.7664    6.0258    7.8271 H         1 <0>         0.1405
     48 H13         1.0154    7.4013    5.9283 H         1 <0>         0.1496
     49 H14         0.8918    2.0580    0.4977 H         1 <0>         0.4317
     50 H15        -0.8528   -0.3786    0.1114 H         1 <0>         0.0971
     51 H16         0.4653    0.2581    2.8213 H         1 <0>         0.0612
     52 H17        -1.3001    0.2031    2.4942 H         1 <0>         0.0679
     53 H18        -0.5128   -1.9177    3.5337 H         1 <0>         0.0647
     54 H19        -1.1082   -2.1973    1.8622 H         1 <0>         0.0660
     55 H20         1.8265   -1.8325    2.6862 H         1 <0>         0.0625
     56 H21         1.0399   -3.3906    2.2618 H         1 <0>         0.0654
     57 H22         2.2847   -2.4547    0.3195 H         1 <0>         0.0686
     58 H23         0.5193   -2.5097   -0.0078 H         1 <0>         0.0664
     59 H24         1.4973   -0.3338   -0.7201 H         1 <0>         0.0704
     60 H25         2.0927   -0.0542    0.9515 H         1 <0>         0.0690
@<TRIPOS>BOND
     1    1    2 1
     2    1   36 1
     3    1   37 1
     4    1   38 1
     5    2    7 1
     6    2    3 2
     7    3    4 1
     8    3   39 1
     9    4    5 2
    10    4   40 1
    11    5    6 1
    12    5   41 1
    13    6   11 am
    14    6    7 1
    15    7    8 2
    16    8    9 1
    17    9   10 2
    18    9   29 1
    19   10   11 1
    20   10   13 1
    21   11   12 2
    22   13   14 2
    23   13   42 1
    24   14   20 1
    25   14   15 1
    26   15   16 2
    27   15   17 am
    28   17   18 1
    29   17   21 1
    30   18   19 2
    31   18   20 1
    32   21   22 1
    33   21   43 1
    34   21   44 1
    35   22   27 ar
    36   22   23 ar
    37   23   24 ar
    38   23   45 1
    39   24   25 ar
    40   24   46 1
    41   25   26 ar
    42   25   28 1
    43   26   27 ar
    44   26   47 1
    45   27   48 1
    46   29   30 1
    47   29   49 1
    48   30   35 1
    49   30   31 1
    50   30   50 1
    51   31   32 1
    52   31   51 1
    53   31   52 1
    54   32   33 1
    55   32   53 1
    56   32   54 1
    57   33   34 1
    58   33   55 1
    59   33   56 1
    60   34   35 1
    61   34   57 1
    62   34   58 1
    63   35   59 1
    64   35   60 1
@<TRIPOS>MOLECULE
ZINC22752495
   63    68     0     0     0
SMALL
USER_CHARGES

@<TRIPOS>ATOM
      1 C1         -1.6869   -0.2469   -3.0343 C.3       1 <0>        -0.1546
      2 C2         -1.4326   -1.7350   -3.2827 C.3       1 <0>        -0.0531
      3 C3         -0.2273   -1.9042   -4.2097 C.3       1 <0>        -0.0911
      4 C4          1.0019   -1.3160   -3.5580 C.2       1 <0>         0.2581
      5 C5          1.1415   -1.3141   -2.2151 C.2       1 <0>        -0.3154
      6 C6          2.3600   -0.7308   -1.5341 C.3       1 <0>         0.2813
      7 H1          2.7114   -1.4215   -0.7676 H         1 <0>         0.1146
      8 N1          3.4199   -0.5117   -2.5103 N.pl3     1 <0>        -0.3805
      9 C7          3.2171   -0.5387   -3.8504 C.2       1 <0>         0.4982
     10 N2          4.3574   -0.2997   -4.4387 N.2       1 <0>        -0.5275
     11 C8          5.3102   -0.1200   -3.5123 C.2       1 <0>         0.2167
     12 N3          4.7743   -0.2435   -2.3169 N.2       1 <0>        -0.2645
     13 S1          7.0062    0.2252   -3.8425 S.3       1 <0>         0.0415
     14 C9          7.1007    0.2681   -5.6536 C.3       1 <0>         0.0092
     15 C10         6.2853    1.4247   -6.1719 C.ar      1 <0>        -0.0722
     16 C11         5.3379    1.2160   -7.1566 C.ar      1 <0>        -0.0845
     17 C12         4.5900    2.2769   -7.6321 C.ar      1 <0>        -0.1228
     18 C13         4.7891    3.5463   -7.1224 C.ar      1 <0>        -0.1158
     19 C14         5.7359    3.7548   -6.1370 C.ar      1 <0>        -0.1205
     20 C15         6.4808    2.6932   -5.6585 C.ar      1 <0>        -0.1016
     21 C16         8.5370    0.4361   -6.0778 C.ar      1 <0>        -0.0684
     22 C17         9.3021    1.4538   -5.5396 C.ar      1 <0>        -0.1054
     23 C18        10.6196    1.6078   -5.9287 C.ar      1 <0>        -0.1151
     24 C19        11.1721    0.7439   -6.8557 C.ar      1 <0>        -0.1119
     25 C20        10.4071   -0.2744   -7.3932 C.ar      1 <0>        -0.1166
     26 C21         9.0909   -0.4310   -7.0009 C.ar      1 <0>        -0.0983
     27 N4          1.9658   -0.7939   -4.3870 N.pl3     1 <0>        -0.6076
     28 C22         1.9938    0.5832   -0.8934 C.ar      1 <0>        -0.1495
     29 C23         2.1393    0.7622    0.4740 C.ar      1 <0>        -0.0367
     30 C24         1.7899    1.9877    1.0198 C.ar      1 <0>        -0.1703
     31 C25         1.3114    2.9833    0.1889 C.ar      1 <0>         0.1060
     32 N5          1.1858    2.7774   -1.1074 N.ar      1 <0>        -0.4828
     33 C26         1.5142    1.6267   -1.6619 C.ar      1 <0>         0.1228
     34 C27         0.1443   -1.8581   -1.3852 C.2       1 <0>         0.4146
     35 O1          0.3101   -1.8621   -0.1812 O.2       1 <0>        -0.4659
     36 C28        -1.1218   -2.4343   -1.9550 C.3       1 <0>        -0.1563
     37 C29        -2.6691   -2.3695   -3.9225 C.3       1 <0>        -0.1421
     38 H2         -0.8007    0.2036   -2.5874 H         1 <0>         0.0584
     39 H3         -1.9075    0.2469   -3.9807 H         1 <0>         0.0643
     40 H4         -2.5338   -0.1310   -2.3579 H         1 <0>         0.0660
     41 H5         -0.0637   -2.9646   -4.4020 H         1 <0>         0.1115
     42 H6         -0.4194   -1.3907   -5.1518 H         1 <0>         0.0997
     43 H7          6.7084   -0.6640   -6.0601 H         1 <0>         0.1135
     44 H8          5.1823    0.2242   -7.5548 H         1 <0>         0.1193
     45 H9          3.8503    2.1140   -8.4020 H         1 <0>         0.1202
     46 H10         4.2053    4.3753   -7.4944 H         1 <0>         0.1196
     47 H11         5.8917    4.7467   -5.7391 H         1 <0>         0.1214
     48 H12         7.2179    2.8554   -4.8860 H         1 <0>         0.1248
     49 H13         8.8705    2.1288   -4.8153 H         1 <0>         0.1277
     50 H14        11.2172    2.4034   -5.5087 H         1 <0>         0.1263
     51 H15        12.2012    0.8647   -7.1602 H         1 <0>         0.1247
     52 H16        10.8386   -0.9491   -8.1177 H         1 <0>         0.1262
     53 H17         8.4944   -1.2289   -7.4181 H         1 <0>         0.1248
     54 H18         1.7756   -0.6097   -5.3201 H         1 <0>         0.4402
     55 H19         2.5156   -0.0342    1.0989 H         1 <0>         0.1387
     56 H20         1.8899    2.1621    2.0810 H         1 <0>         0.1406
     57 H21         1.0370    3.9408    0.6063 H         1 <0>         0.1593
     58 H22         1.4025    1.4968   -2.7282 H         1 <0>         0.1379
     59 H23        -1.9429   -2.2731   -1.2566 H         1 <0>         0.1033
     60 H24        -0.9913   -3.5027   -2.1271 H         1 <0>         0.1057
     61 H25        -2.8813   -1.8759   -4.8709 H         1 <0>         0.0641
     62 H26        -2.4841   -3.4293   -4.0979 H         1 <0>         0.0626
     63 H27        -3.5228   -2.2554   -3.2545 H         1 <0>         0.0669
@<TRIPOS>BOND
     1    1    2 1
     2    1   38 1
     3    1   39 1
     4    1   40 1
     5    2   36 1
     6    2    3 1
     7    2   37 1
     8    3    4 1
     9    3   41 1
    10    3   42 1
    11    4   27 1
    12    4    5 2
    13    5    6 1
    14    5   34 1
    15    6    7 1
    16    6    8 1
    17    6   28 1
    18    8   12 1
    19    8    9 1
    20    9   10 2
    21    9   27 1
    22   10   11 1
    23   11   12 2
    24   11   13 1
    25   13   14 1
    26   14   15 1
    27   14   21 1
    28   14   43 1
    29   15   20 ar
    30   15   16 ar
    31   16   17 ar
    32   16   44 1
    33   17   18 ar
    34   17   45 1
    35   18   19 ar
    36   18   46 1
    37   19   20 ar
    38   19   47 1
    39   20   48 1
    40   21   26 ar
    41   21   22 ar
    42   22   23 ar
    43   22   49 1
    44   23   24 ar
    45   23   50 1
    46   24   25 ar
    47   24   51 1
    48   25   26 ar
    49   25   52 1
    50   26   53 1
    51   27   54 1
    52   28   33 ar
    53   28   29 ar
    54   29   30 ar
    55   29   55 1
    56   30   31 ar
    57   30   56 1
    58   31   32 ar
    59   31   57 1
    60   32   33 ar
    61   33   58 1
    62   34   35 2
    63   34   36 1
    64   36   59 1
    65   36   60 1
    66   37   61 1
    67   37   62 1
    68   37   63 1
@<TRIPOS>MOLECULE
ZINC13440455
   40    43     0     0     0
SMALL
USER_CHARGES
4-fluoro-3-[[4-methyl-5-(2-thienylmethyl)-1,2,4-triazol-3-yl]sulfanylmethyl]benzothiophene-2-carboxylic acid
@<TRIPOS>ATOM
      1 C1          3.9939    3.7527    1.7764 C.3       1 <0>         0.0728
      2 N1          2.6336    4.1133    2.1836 N.pl3     1 <0>        -0.4646
      3 C2          1.4958    4.0275    1.4297 C.2       1 <0>         0.1670
      4 N2          0.5089    4.4517    2.1672 N.2       1 <0>        -0.2722
      5 N3          0.9403    4.7886    3.3301 N.2       1 <0>        -0.2891
      6 C3          2.2386    4.6049    3.3947 C.2       1 <0>         0.1802
      7 S1          3.2751    4.9305    4.7818 S.3       1 <0>         0.0113
      8 C4          2.0432    5.5431    5.9578 C.3       1 <0>        -0.0455
      9 C5          2.7205    5.8949    7.2573 C.2       1 <0>        -0.1153
     10 C6          2.8512    4.9263    8.2673 C.ar      1 <0>        -0.0974
     11 C7          2.4242    3.5709    8.2460 C.ar      1 <0>         0.1361
     12 C8          2.6391    2.7549    9.3255 C.ar      1 <0>        -0.1636
     13 C9          3.2823    3.2172   10.4670 C.ar      1 <0>        -0.0832
     14 C10         3.7161    4.5260   10.5210 C.ar      1 <0>        -0.0818
     15 C11         3.5072    5.3604    9.4435 C.ar      1 <0>        -0.1194
     16 S2          3.8897    7.0597    9.0997 S.3       1 <0>         0.1020
     17 C12         3.2013    7.1520    7.4561 C.2       1 <0>        -0.0829
     18 C13         3.1627    8.3011    6.5438 C.2       1 <0>         0.5210
     19 O1          2.6489    8.1899    5.4475 O.co2     1 <0>        -0.5858
     20 F1          1.7958    3.0841    7.1536 F         1 <0>        -0.1296
     21 C14         1.4018    3.5389    0.0073 C.3       1 <0>         0.0593
     22 C15         1.1597    2.0514    0.0020 C.2       1 <0>        -0.1400
     23 C16        -0.0167    1.3780    0.0096 C.2       1 <0>        -0.1407
     24 C17         0.0021   -0.0041    0.0020 C.2       1 <0>        -0.1534
     25 C18         1.1962   -0.6452   -0.0128 C.2       1 <0>        -0.1715
     26 S3          2.3478    0.7191   -0.0165 S.3       1 <0>         0.0244
     27 H1          4.4837    4.6213    1.3362 H         1 <0>         0.0870
     28 H2          4.5579    3.4203    2.6478 H         1 <0>         0.0945
     29 H3          3.9520    2.9482    1.0421 H         1 <0>         0.0871
     30 H4          1.5596    6.4300    5.5484 H         1 <0>         0.1352
     31 H5          1.2949    4.7707    6.1356 H         1 <0>         0.1008
     32 H6          2.3015    1.7297    9.2882 H         1 <0>         0.1347
     33 H7          3.4420    2.5565   11.3063 H         1 <0>         0.1386
     34 H8          4.2168    4.8954   11.4038 H         1 <0>         0.1347
     35 H9          2.3337    3.7571   -0.5142 H         1 <0>         0.0977
     36 H10         0.5770    4.0430   -0.4963 H         1 <0>         0.1236
     37 H11        -0.9546    1.9134    0.0170 H         1 <0>         0.1384
     38 H12        -0.9210   -0.5647    0.0075 H         1 <0>         0.1347
     39 H13         1.3986   -1.7060   -0.0208 H         1 <0>         0.1852
     40 O2          3.6972    9.4802    6.9214 O.co2     1 <0>        -0.7299
@<TRIPOS>BOND
     1    1    2 1
     2    1   27 1
     3    1   28 1
     4    1   29 1
     5    2    6 1
     6    2    3 1
     7    3    4 2
     8    3   21 1
     9    4    5 1
    10    5    6 2
    11    6    7 1
    12    7    8 1
    13    8    9 1
    14    8   30 1
    15    8   31 1
    16    9   17 2
    17    9   10 1
    18   10   15 ar
    19   10   11 ar
    20   11   12 ar
    21   11   20 1
    22   12   13 ar
    23   12   32 1
    24   13   14 ar
    25   13   33 1
    26   14   15 ar
    27   14   34 1
    28   15   16 1
    29   16   17 1
    30   17   18 1
    31   18   19 2
    32   18   40 1
    33   21   22 1
    34   21   35 1
    35   21   36 1
    36   22   26 1
    37   22   23 2
    38   23   24 1
    39   23   37 1
    40   24   25 2
    41   24   38 1
    42   25   26 1
    43   25   39 1
@<TRIPOS>MOLECULE
ZINC33290050
   38    40     0     0     0
SMALL
USER_CHARGES
N-(4-bromo-2-fluoro-phenyl)-5-(4,5-dimethylthiazol-2-yl)-2-methyl-thiophene-3-sulfonamide
@<TRIPOS>ATOM
      1 C1         -3.2145   -1.9455    6.5005 C.3       1 <0>        -0.0839
      2 C2         -3.3225   -0.5004    6.0869 C.2       1 <0>         0.0605
      3 C3         -4.0216    0.3762    6.8543 C.2       1 <0>        -0.1838
      4 S1         -3.8147    1.8810    5.9103 S.3       1 <0>        -0.0019
      5 C4         -2.8217    1.1811    4.5986 C.2       1 <0>         0.2166
      6 N1         -2.7454   -0.0881    4.9819 N.2       1 <0>        -0.4912
      7 C5         -2.2487    1.8340    3.4109 C.2       1 <0>        -0.1369
      8 C6         -1.4921    1.2884    2.4045 C.2       1 <0>        -0.0064
      9 C7         -1.0591    2.1063    1.3860 C.2       1 <0>        -0.7203
     10 C8         -1.4011    3.4211    1.4012 C.2       1 <0>         0.0108
     11 S2         -2.3631    3.5410    2.9002 S.3       1 <0>         0.0850
     12 C9         -1.0574    4.5007    0.4074 C.3       1 <0>        -0.1067
     13 S3         -0.0791    1.4548    0.0745 S.o2      1 <0>         2.6028
     14 O1          0.0381    0.0584    0.3102 O.2       1 <0>        -1.0206
     15 O2          1.0533    2.3045   -0.0471 O.2       1 <0>        -0.9840
     16 N2         -0.9525    1.6275   -1.3217 N.2       1 <0>        -1.0365
     17 C10        -2.1208    0.8821   -1.5127 C.ar      1 <0>         0.2467
     18 C11        -2.9183    0.5484   -0.4265 C.ar      1 <0>        -0.2259
     19 C12        -4.0716   -0.1878   -0.6177 C.ar      1 <0>        -0.0465
     20 C13        -4.4331   -0.5932   -1.8901 C.ar      1 <0>        -0.1515
     21 C14        -3.6413   -0.2630   -2.9757 C.ar      1 <0>        -0.0897
     22 C15        -2.4888    0.4786   -2.7917 C.ar      1 <0>         0.0445
     23 F1         -1.7184    0.8060   -3.8522 F         1 <0>        -0.1373
     24 Br1        -6.0123   -1.6013   -2.1461 Br        1 <0>        -0.0812
     25 C16        -4.7655    0.1445    8.1442 C.3       1 <0>        -0.0602
     26 H1         -3.7577   -2.0982    7.4447 H         1 <0>         0.0730
     27 H2         -2.1556   -2.2088    6.6399 H         1 <0>         0.0749
     28 H3         -3.6513   -2.5842    5.7187 H         1 <0>         0.0762
     29 H4         -1.2379    0.2388    2.4139 H         1 <0>         0.1562
     30 H5         -1.5005    5.4534    0.7331 H         1 <0>         0.0802
     31 H6         -1.4565    4.2296   -0.5811 H         1 <0>         0.1124
     32 H7          0.0357    4.6070    0.3449 H         1 <0>         0.1110
     33 H8         -2.6376    0.8645    0.5673 H         1 <0>         0.1271
     34 H9         -4.6921   -0.4470    0.2274 H         1 <0>         0.1188
     35 H10        -3.9261   -0.5805   -3.9679 H         1 <0>         0.1294
     36 H11        -5.2152    1.0895    8.4829 H         1 <0>         0.0733
     37 H12        -4.0665   -0.2240    8.9095 H         1 <0>         0.0822
     38 H13        -5.5578   -0.6011    7.9817 H         1 <0>         0.0827
@<TRIPOS>BOND
     1    1    2 1
     2    1   26 1
     3    1   27 1
     4    1   28 1
     5    2    6 1
     6    2    3 2
     7    3    4 1
     8    3   25 1
     9    4    5 1
    10    5    6 2
    11    5    7 1
    12    7   11 1
    13    7    8 2
    14    8    9 1
    15    8   29 1
    16    9   10 2
    17    9   13 1
    18   10   11 1
    19   10   12 1
    20   12   30 1
    21   12   31 1
    22   12   32 1
    23   13   14 2
    24   13   15 2
    25   13   16 1
    26   16   17 1
    27   17   22 ar
    28   17   18 ar
    29   18   19 ar
    30   18   33 1
    31   19   20 ar
    32   19   34 1
    33   20   21 ar
    34   20   24 1
    35   21   22 ar
    36   21   35 1
    37   22   23 1
    38   25   36 1
    39   25   37 1
    40   25   38 1
@<TRIPOS>MOLECULE
ZINC27756978
   32    34     0     0     0
SMALL
USER_CHARGES

@<TRIPOS>ATOM
      1 C1         -0.0173    1.4248    0.0099 C.3       1 <0>         0.0240
      2 O1          0.0021   -0.0041    0.0020 O.3       1 <0>        -0.2864
      3 C2          0.6259   -0.6184    1.0416 C.ar      1 <0>         0.2448
      4 C3          1.2024    0.1386    2.0513 C.ar      1 <0>        -0.2284
      5 C4          1.8359   -0.4876    3.1069 C.ar      1 <0>        -0.0082
      6 C5          1.8958   -1.8691    3.1578 C.ar      1 <0>        -0.1553
      7 C6          1.3221   -2.6257    2.1519 C.ar      1 <0>         0.0417
      8 C7          0.6821   -2.0032    1.0974 C.ar      1 <0>        -0.6629
      9 S1         -0.0558   -2.9677   -0.1792 S.o2      1 <0>         2.6527
     10 O2          0.3982   -2.4256   -1.4117 O.2       1 <0>        -0.9865
     11 O3          0.1440   -4.3296    0.1737 O.2       1 <0>        -1.0009
     12 N1         -1.6883   -2.6970   -0.1158 N.2       1 <0>        -1.0137
     13 C8         -2.5280   -3.3297   -1.0101 C.2       1 <0>         0.5070
     14 N2         -2.2245   -4.1754   -1.9681 N.2       1 <0>        -0.6622
     15 C9         -3.1597   -4.7224   -2.7762 C.ar      1 <0>         0.1826
     16 C10        -2.9688   -5.6377   -3.8367 C.ar      1 <0>        -0.1114
     17 C11        -4.0345   -6.0988   -4.5648 C.ar      1 <0>        -0.0837
     18 C12        -5.3319   -5.6877   -4.2908 C.ar      1 <0>        -0.0812
     19 C13        -5.5548   -4.7922   -3.2594 C.ar      1 <0>        -0.0273
     20 C14        -4.4928   -4.3260   -2.5258 C.ar      1 <0>        -0.1918
     21 S2         -4.3055   -3.2123   -1.1542 S.3       1 <0>        -0.0651
     22 Cl1        -6.6603   -6.2900   -5.2322 Cl        1 <0>        -0.0870
     23 Br1         2.7638   -2.7238    4.6041 Br        1 <0>        -0.0511
     24 H1          1.0053    1.8021    0.0021 H         1 <0>         0.0585
     25 H2         -0.5445    1.7859   -0.8732 H         1 <0>         0.1076
     26 H3         -0.5275    1.7763    0.9067 H         1 <0>         0.0605
     27 H4          1.1561    1.2169    2.0118 H         1 <0>         0.1435
     28 H5          2.2850    0.1013    3.8929 H         1 <0>         0.1391
     29 H6          1.3703   -3.7038    2.1933 H         1 <0>         0.1562
     30 H7         -1.9719   -5.9773   -4.0759 H         1 <0>         0.1295
     31 H8         -3.8611   -6.7973   -5.3700 H         1 <0>         0.1278
     32 H9         -6.5580   -4.4621   -3.0336 H         1 <0>         0.1278
@<TRIPOS>BOND
     1    1    2 1
     2    1   24 1
     3    1   25 1
     4    1   26 1
     5    2    3 1
     6    3    8 ar
     7    3    4 ar
     8    4    5 ar
     9    4   27 1
    10    5    6 ar
    11    5   28 1
    12    6    7 ar
    13    6   23 1
    14    7    8 ar
    15    7   29 1
    16    8    9 1
    17    9   10 2
    18    9   11 2
    19    9   12 1
    20   12   13 1
    21   13   21 1
    22   13   14 2
    23   14   15 1
    24   15   20 ar
    25   15   16 ar
    26   16   17 ar
    27   16   30 1
    28   17   18 ar
    29   17   31 1
    30   18   19 ar
    31   18   22 1
    32   19   20 ar
    33   19   32 1
    34   20   21 1
@<TRIPOS>MOLECULE
ZINC38618611
   48    51     0     0     0
SMALL
USER_CHARGES

@<TRIPOS>ATOM
      1 C1         -6.7490   -3.1076   -0.9176 C.3       1 <0>        -0.1135
      2 C2         -5.3546   -3.6474   -0.7294 C.ar      1 <0>        -0.0548
      3 C3         -4.4622   -3.6679   -1.7946 C.ar      1 <0>        -0.1265
      4 C4         -3.1997   -4.1484   -1.6564 C.ar      1 <0>        -0.0564
      5 C5         -2.7463   -4.6496   -0.4090 C.ar      1 <0>        -0.1027
      6 C6         -3.6756   -4.6159    0.6576 C.ar      1 <0>        -0.1105
      7 C7         -4.9526   -4.1198    0.5035 C.ar      1 <0>        -0.0802
      8 S1         -2.7698   -5.3077    2.0185 S.3       1 <0>         0.1371
      9 C8         -1.2288   -5.6171    1.1738 C.2       1 <0>        -0.1729
     10 C9         -1.4823   -5.1808   -0.0913 C.2       1 <0>        -0.0111
     11 Cl1        -0.2493   -5.2801   -1.3093 Cl        1 <0>        -0.0350
     12 C10         0.0080   -6.1984    1.7105 C.2       1 <0>         0.5245
     13 O1          0.9429   -6.4340    0.9664 O.2       1 <0>        -0.4221
     14 C11         0.1179   -6.4963    3.1475 C.2       1 <0>        -0.4134
     15 C12         0.1154   -5.4487    4.0830 C.2       1 <0>         0.1427
     16 C13         0.2200   -5.7558    5.4360 C.2       1 <0>        -0.3046
     17 C14         0.3289   -7.1598    5.8342 C.2       1 <0>         0.5765
     18 O2          0.4213   -7.4551    7.0125 O.2       1 <0>        -0.5448
     19 N1          0.3263   -8.1243    4.8948 N.am      1 <0>        -0.5209
     20 C15         0.2189   -7.8205    3.5793 C.2       1 <0>         0.5289
     21 O3          0.2147   -8.8139    2.6701 O.3       1 <0>        -0.6446
     22 C16         0.4358   -9.5270    5.3030 C.3       1 <0>         0.1097
     23 C17        -0.9631  -10.1008    5.5369 C.3       1 <0>         0.0693
     24 H1         -1.5577  -10.0297    4.6261 H         1 <0>         0.0764
     25 C18        -0.8686  -11.5752    6.0037 C.3       1 <0>        -0.1466
     26 C19        -2.2111  -11.7288    6.7692 C.3       1 <0>        -0.1535
     27 C20        -2.4020  -10.3242    7.3809 C.3       1 <0>         0.0505
     28 O4         -1.6138   -9.4056    6.6125 O.3       1 <0>        -0.3587
     29 C21         0.2216   -4.7166    6.4212 C.1       1 <0>         0.3165
     30 N2          0.2228   -3.8921    7.2028 N.1       1 <0>        -0.4949
     31 C22         0.0017   -4.0163    3.6289 C.3       1 <0>        -0.1340
     32 H2         -6.7554   -2.0375   -0.7104 H         1 <0>         0.0749
     33 H3         -7.0700   -3.2807   -1.9448 H         1 <0>         0.0698
     34 H4         -7.4301   -3.6142   -0.2338 H         1 <0>         0.0700
     35 H5         -4.7808   -3.2929   -2.7559 H         1 <0>         0.1278
     36 H6         -2.5331   -4.1493   -2.5061 H         1 <0>         0.1285
     37 H7         -5.6349   -4.1049    1.3405 H         1 <0>         0.1348
     38 H8          0.9353  -10.0957    4.5187 H         1 <0>         0.1040
     39 H9          1.0143   -9.5932    6.2244 H         1 <0>         0.0916
     40 H10        -0.8217  -12.2545    5.1526 H         1 <0>         0.0837
     41 H11        -0.0179  -11.7228    6.6691 H         1 <0>         0.0798
     42 H12        -3.0239  -11.9667    6.0830 H         1 <0>         0.0738
     43 H13        -2.1280  -12.4842    7.5506 H         1 <0>         0.0782
     44 H14        -3.4528  -10.0390    7.3313 H         1 <0>         0.0612
     45 H15        -2.0661  -10.3238    8.4179 H         1 <0>         0.0648
     46 H16        -1.0457   -3.7145    3.6374 H         1 <0>         0.0850
     47 H17         0.5700   -3.3753    4.3028 H         1 <0>         0.0738
     48 H18         0.3984   -3.9230    2.6180 H         1 <0>         0.0681
@<TRIPOS>BOND
     1    1    2 1
     2    1   32 1
     3    1   33 1
     4    1   34 1
     5    2    7 ar
     6    2    3 ar
     7    3    4 ar
     8    3   35 1
     9    4    5 ar
    10    4   36 1
    11    5   10 1
    12    5    6 ar
    13    6    7 ar
    14    6    8 1
    15    7   37 1
    16    8    9 1
    17    9   10 2
    18    9   12 1
    19   10   11 1
    20   12   13 2
    21   12   14 1
    22   14   20 2
    23   14   15 1
    24   15   16 2
    25   15   31 1
    26   16   17 1
    27   16   29 1
    28   17   18 2
    29   17   19 am
    30   19   20 1
    31   19   22 1
    32   20   21 1
    33   22   23 1
    34   22   38 1
    35   22   39 1
    36   23   24 1
    37   23   28 1
    38   23   25 1
    39   25   26 1
    40   25   40 1
    41   25   41 1
    42   26   27 1
    43   26   42 1
    44   26   43 1
    45   27   28 1
    46   27   44 1
    47   27   45 1
    48   29   30 3
    49   31   46 1
    50   31   47 1
    51   31   48 1
@<TRIPOS>MOLECULE
ZINC59109483
   50    53     0     0     0
SMALL
USER_CHARGES

@<TRIPOS>ATOM
      1 C1          2.0968    0.9843    0.1832 C.3       1 <0>        -0.0795
      2 C2          1.2512   -0.2566    0.0556 C.2       1 <0>        -0.0077
      3 C3          1.3324   -1.1529   -0.9404 C.2       1 <0>        -0.0811
      4 C4          0.3261   -2.1865   -0.6522 C.2       1 <0>        -0.1605
      5 C5         -0.2862   -1.7988    0.5325 C.2       1 <0>         0.0675
      6 N1          0.2839   -0.6501    0.9398 N.pl3     1 <0>        -0.4031
      7 C6         -0.0662    0.0471    2.1041 C.ar      1 <0>         0.1477
      8 C7          0.1599   -0.5226    3.3502 C.ar      1 <0>        -0.0958
      9 C8         -0.1858    0.1658    4.4964 C.ar      1 <0>        -0.0851
     10 C9         -0.7572    1.4228    4.4045 C.ar      1 <0>        -0.0305
     11 C10        -0.9839    1.9936    3.1633 C.ar      1 <0>        -0.0198
     12 C11        -0.6342    1.3104    2.0134 C.ar      1 <0>        -0.0926
     13 Cl1        -1.7014    3.5704    3.0513 Cl        1 <0>        -0.0381
     14 Cl2        -1.1910    2.2853    5.8473 Cl        1 <0>        -0.0429
     15 C12        -1.3913   -2.5387    1.2413 C.3       1 <0>        -0.0902
     16 C13         0.0407   -3.3365   -1.4225 C.2       1 <0>         0.0901
     17 C14        -0.0715   -3.2371   -2.8038 C.2       1 <0>        -0.2516
     18 C15        -0.1780   -4.4314   -3.6533 C.2       1 <0>         0.4970
     19 O1         -0.1702   -5.6672   -3.1108 O.3       1 <0>        -0.6450
     20 N2         -0.2822   -4.2676   -4.9617 N.2       1 <0>        -0.6710
     21 C16        -0.2931   -3.0619   -5.5239 C.2       1 <0>         0.6704
     22 O2         -0.3921   -2.9925   -6.7363 O.2       1 <0>        -0.5780
     23 N3         -0.2014   -1.9187   -4.8289 N.am      1 <0>        -0.5822
     24 C17        -0.0953   -1.9280   -3.4828 C.2       1 <0>         0.5606
     25 O3         -0.0169   -0.8907   -2.8511 O.2       1 <0>        -0.5099
     26 C18        -0.2225   -0.6387   -5.5412 C.3       1 <0>         0.1477
     27 C19        -1.6451   -0.1577   -5.6679 C.ar      1 <0>        -0.0981
     28 C20        -2.4031   -0.5230   -6.7647 C.ar      1 <0>        -0.0905
     29 C21        -3.7079   -0.0818   -6.8809 C.ar      1 <0>        -0.1296
     30 C22        -4.2550    0.7243   -5.9002 C.ar      1 <0>        -0.1223
     31 C23        -3.4973    1.0888   -4.8030 C.ar      1 <0>        -0.1324
     32 C24        -2.1938    0.6441   -4.6846 C.ar      1 <0>        -0.0975
     33 H1          3.0018    0.7512    0.7442 H         1 <0>         0.0654
     34 H2          2.3672    1.3434   -0.8098 H         1 <0>         0.0805
     35 H3          1.5329    1.7558    0.7075 H         1 <0>         0.0577
     36 H4          2.0037   -1.1214   -1.7859 H         1 <0>         0.1401
     37 H5          0.6054   -1.5037    3.4229 H         1 <0>         0.1473
     38 H6         -0.0102   -0.2774    5.4655 H         1 <0>         0.1519
     39 H7         -0.8069    1.7573    1.0455 H         1 <0>         0.1508
     40 H8         -0.9591   -3.2478    1.9473 H         1 <0>         0.0776
     41 H9         -2.0184   -1.8273    1.7786 H         1 <0>         0.0640
     42 H10        -1.9956   -3.0762    0.5105 H         1 <0>         0.0867
     43 H11        -0.0901   -4.2925   -0.9375 H         1 <0>         0.1417
     44 H12         0.3612    0.0957   -4.9861 H         1 <0>         0.0874
     45 H13         0.2070   -0.7685   -6.5345 H         1 <0>         0.0964
     46 H14        -1.9757   -1.1528   -7.5309 H         1 <0>         0.1318
     47 H15        -4.2999   -0.3666   -7.7382 H         1 <0>         0.1186
     48 H16        -5.2743    1.0695   -5.9914 H         1 <0>         0.1156
     49 H17        -3.9246    1.7189   -4.0369 H         1 <0>         0.1156
     50 H18        -1.6030    0.9259   -3.8255 H         1 <0>         0.1250
@<TRIPOS>BOND
     1    1    2 1
     2    1   33 1
     3    1   34 1
     4    1   35 1
     5    2    6 1
     6    2    3 2
     7    3    4 1
     8    3   36 1
     9    4    5 2
    10    4   16 1
    11    5    6 1
    12    5   15 1
    13    6    7 1
    14    7   12 ar
    15    7    8 ar
    16    8    9 ar
    17    8   37 1
    18    9   10 ar
    19    9   38 1
    20   10   11 ar
    21   10   14 1
    22   11   12 ar
    23   11   13 1
    24   12   39 1
    25   15   40 1
    26   15   41 1
    27   15   42 1
    28   16   17 2
    29   16   43 1
    30   17   24 1
    31   17   18 1
    32   18   19 1
    33   18   20 2
    34   20   21 1
    35   21   22 2
    36   21   23 am
    37   23   24 am
    38   23   26 1
    39   24   25 2
    40   26   27 1
    41   26   44 1
    42   26   45 1
    43   27   32 ar
    44   27   28 ar
    45   28   29 ar
    46   28   46 1
    47   29   30 ar
    48   29   47 1
    49   30   31 ar
    50   30   48 1
    51   31   32 ar
    52   31   49 1
    53   32   50 1
@<TRIPOS>MOLECULE
ZINC14609093
   57    61     0     0     0
SMALL
USER_CHARGES

@<TRIPOS>ATOM
      1 C1         -0.0187    1.5258    0.0104 C.3       1 <0>        -0.1380
      2 C2          0.0021   -0.0041    0.0020 C.3       1 <0>        -0.0290
      3 C3          0.7421   -0.5109    1.2415 C.3       1 <0>        -0.1381
      4 C4         -1.4333   -0.5336    0.0129 C.3       1 <0>        -0.1437
      5 C5          0.7074   -0.4901   -1.2379 C.ar      1 <0>        -0.0699
      6 C6          0.0323   -1.2850   -2.1473 C.ar      1 <0>        -0.1291
      7 C7          0.6718   -1.7338   -3.2840 C.ar      1 <0>        -0.0758
      8 C8          2.0039   -1.3836   -3.5163 C.ar      1 <0>         0.0035
      9 C9          2.6790   -0.5805   -2.5942 C.ar      1 <0>        -0.0830
     10 C10         2.0255   -0.1346   -1.4643 C.ar      1 <0>        -0.1227
     11 C11         2.6953   -1.8606   -4.7305 C.2       1 <0>         0.2721
     12 N1          3.9961   -1.5903   -5.0651 N.2       1 <0>        -0.3626
     13 N2          4.2328   -2.2359   -6.2865 N.am      1 <0>        -0.3805
     14 C12         5.3128   -2.3239   -7.0851 C.2       1 <0>         0.5439
     15 O1          6.3561   -1.7671   -6.7848 O.2       1 <0>        -0.5788
     16 C13         5.2144   -3.0714   -8.2732 C.2       1 <0>        -0.3909
     17 C14         4.0285   -3.6797   -8.5727 C.2       1 <0>         0.2350
     18 N3          2.9886   -3.5656   -7.7546 N.2       1 <0>        -0.5784
     19 C15         3.0661   -2.8645   -6.6312 C.2       1 <0>         0.4893
     20 N4          2.1642   -2.6197   -5.6658 N.2       1 <0>        -0.5627
     21 C16         3.8992   -4.4851   -9.8399 C.3       1 <0>         0.1156
     22 N5          3.6726   -5.8967   -9.5020 N.3       1 <0>        -0.5245
     23 C17         3.7553   -6.7458  -10.7010 C.3       1 <0>         0.0507
     24 C18         3.8806   -8.2032  -10.2561 C.3       1 <0>        -0.0733
     25 C19         2.8065   -8.5279   -9.2499 C.ar      1 <0>        -0.0754
     26 C20         2.5211   -9.8607   -8.9940 C.ar      1 <0>        -0.1244
     27 C21         1.5472  -10.2018   -8.0772 C.ar      1 <0>        -0.1296
     28 C22         0.8532   -9.2095   -7.4098 C.ar      1 <0>        -0.1247
     29 C23         1.1357   -7.8828   -7.6647 C.ar      1 <0>        -0.1134
     30 C24         2.1122   -7.5382   -8.5880 C.ar      1 <0>        -0.0654
     31 C25         2.3766   -6.0771   -8.8403 C.3       1 <0>         0.0850
     32 H1          1.0039    1.9031    0.0027 H         1 <0>         0.0572
     33 H2         -0.5459    1.8868   -0.8726 H         1 <0>         0.0565
     34 H3         -0.5289    1.8773    0.9072 H         1 <0>         0.0550
     35 H4          0.2319   -0.1594    2.1383 H         1 <0>         0.0550
     36 H5          0.7568   -1.6008    1.2356 H         1 <0>         0.0566
     37 H6          1.7647   -0.1336    1.2338 H         1 <0>         0.0572
     38 H7         -1.9605   -0.1726   -0.8702 H         1 <0>         0.0593
     39 H8         -1.4185   -1.6235    0.0069 H         1 <0>         0.0593
     40 H9         -1.9435   -0.1821    0.9097 H         1 <0>         0.0546
     41 H10        -0.9977   -1.5550   -1.9665 H         1 <0>         0.1268
     42 H11         0.1439   -2.3547   -3.9927 H         1 <0>         0.1348
     43 H12         3.7092   -0.3063   -2.7673 H         1 <0>         0.1300
     44 H13         2.5449    0.4900   -0.7527 H         1 <0>         0.1207
     45 H14         6.0615   -3.1623   -8.9369 H         1 <0>         0.1352
     46 H15         3.0579   -4.1116  -10.4236 H         1 <0>         0.0506
     47 H16         4.8153   -4.3938  -10.4235 H         1 <0>         0.0908
     48 H17         2.8533   -6.6221  -11.3002 H         1 <0>         0.0367
     49 H18         4.6298   -6.4658  -11.2884 H         1 <0>         0.0790
     50 H19         3.7745   -8.8564  -11.1222 H         1 <0>         0.0739
     51 H20         4.8597   -8.3606   -9.8037 H         1 <0>         0.0822
     52 H21         3.0634  -10.6358   -9.5150 H         1 <0>         0.1164
     53 H22         1.3276  -11.2410   -7.8820 H         1 <0>         0.1162
     54 H23         0.0914   -9.4720   -6.6907 H         1 <0>         0.1183
     55 H24         0.5931   -7.1084   -7.1427 H         1 <0>         0.1240
     56 H25         2.3803   -5.5428   -7.8902 H         1 <0>         0.1259
     57 H26         1.5887   -5.6735   -9.4763 H         1 <0>         0.0463
@<TRIPOS>BOND
     1    1    2 1
     2    1   32 1
     3    1   33 1
     4    1   34 1
     5    2    3 1
     6    2    4 1
     7    2    5 1
     8    3   35 1
     9    3   36 1
    10    3   37 1
    11    4   38 1
    12    4   39 1
    13    4   40 1
    14    5   10 ar
    15    5    6 ar
    16    6    7 ar
    17    6   41 1
    18    7    8 ar
    19    7   42 1
    20    8    9 ar
    21    8   11 1
    22    9   10 ar
    23    9   43 1
    24   10   44 1
    25   11   20 2
    26   11   12 1
    27   12   13 1
    28   13   19 1
    29   13   14 am
    30   14   15 2
    31   14   16 1
    32   16   17 2
    33   16   45 1
    34   17   18 1
    35   17   21 1
    36   18   19 2
    37   19   20 1
    38   21   22 1
    39   21   46 1
    40   21   47 1
    41   22   31 1
    42   22   23 1
    43   23   24 1
    44   23   48 1
    45   23   49 1
    46   24   25 1
    47   24   50 1
    48   24   51 1
    49   25   30 ar
    50   25   26 ar
    51   26   27 ar
    52   26   52 1
    53   27   28 ar
    54   27   53 1
    55   28   29 ar
    56   28   54 1
    57   29   30 ar
    58   29   55 1
    59   30   31 1
    60   31   56 1
    61   31   57 1
@<TRIPOS>MOLECULE
ZINC09045142
   46    50     0     0     0
SMALL
USER_CHARGES
(5S)-5-(3-fluorophenyl)-3-hydroxy-1-(6-methoxy-1,3-benzothiazol-2-yl)-4-(thiophene-2-carbonyl)-5H-pyrrol-2-one
@<TRIPOS>ATOM
      1 C1         -9.3603   -0.4745   -0.4425 C.3       1 <0>         0.0238
      2 O1         -8.0925   -1.1339   -0.4400 O.3       1 <0>        -0.3123
      3 C2         -6.9870   -0.3459   -0.3625 C.ar      1 <0>         0.1277
      4 C3         -7.1124    1.0383   -0.2903 C.ar      1 <0>        -0.1856
      5 C4         -6.0236    1.8492   -0.2120 C.ar      1 <0>        -0.0332
      6 C5         -4.7159    1.3110   -0.2021 C.ar      1 <0>         0.0841
      7 C6         -4.6186   -0.0973   -0.2764 C.ar      1 <0>        -0.1414
      8 C7         -5.7206   -0.9121   -0.3549 C.ar      1 <0>        -0.0903
      9 S1         -2.8618   -0.3581   -0.2365 S.3       1 <0>         0.0616
     10 C8         -2.3819    1.3600   -0.1272 C.2       1 <0>         0.4031
     11 N1         -3.5413    1.9749   -0.1235 N.2       1 <0>        -0.5393
     12 N2         -1.1108    1.9036   -0.0581 N.am      1 <0>        -0.5055
     13 C9         -0.7858    3.3319    0.0344 C.3       1 <0>         0.2699
     14 H1         -1.2104    3.8684   -0.8269 H         1 <0>         0.0914
     15 C10         0.7221    3.4177    0.0774 C.2       1 <0>        -0.4878
     16 C11         1.1869    2.1482    0.0195 C.2       1 <0>         0.2774
     17 C12         0.0457    1.2162   -0.0606 C.2       1 <0>         0.5145
     18 O2          0.1372    0.0061   -0.1247 O.2       1 <0>        -0.4818
     19 O3          2.4924    1.7899    0.0326 O.3       1 <0>        -0.6286
     20 C13         1.5272    4.6415    0.1658 C.2       1 <0>         0.5454
     21 O4          2.1998    4.8580    1.1585 O.2       1 <0>        -0.4530
     22 C14         1.5221    5.6033   -0.9398 C.2       1 <0>        -0.2108
     23 C15         2.2727    6.7614   -1.0962 C.2       1 <0>        -0.1086
     24 C16         2.0684    7.4871   -2.2417 C.2       1 <0>        -0.1715
     25 C17         1.1588    7.0480   -3.1530 C.2       1 <0>        -0.2181
     26 S2          0.5558    5.5876   -2.4395 S.3       1 <0>         0.1571
     27 C18        -1.3747    3.9238    1.2890 C.ar      1 <0>        -0.0424
     28 C19        -1.9902    5.1611    1.2465 C.ar      1 <0>        -0.1116
     29 C20        -2.5303    5.7054    2.3965 C.ar      1 <0>        -0.0913
     30 C21        -2.4565    5.0127    3.5903 C.ar      1 <0>        -0.1588
     31 C22        -1.8409    3.7735    3.6340 C.ar      1 <0>         0.0969
     32 C23        -1.3043    3.2271    2.4802 C.ar      1 <0>        -0.1259
     33 F1         -1.7677    3.0958    4.8004 F         1 <0>        -0.1438
     34 H2        -10.1631   -1.2236   -0.5086 H         1 <0>         0.1012
     35 H3         -9.4193    0.2034   -1.3068 H         1 <0>         0.0572
     36 H4         -9.4744    0.1043    0.4859 H         1 <0>         0.0571
     37 H5         -8.0984    1.4791   -0.2962 H         1 <0>         0.1345
     38 H6         -6.1594    2.9192   -0.1567 H         1 <0>         0.1340
     39 H7         -5.6027   -1.9842   -0.4105 H         1 <0>         0.1382
     40 H8          2.9854    7.0767   -0.3485 H         1 <0>         0.1413
     41 H9          2.6235    8.3965   -2.4184 H         1 <0>         0.1303
     42 H10         0.8825    7.4980   -4.0951 H         1 <0>         0.1824
     43 H11        -2.0487    5.7029    0.3141 H         1 <0>         0.1280
     44 H12        -3.0106    6.6722    2.3622 H         1 <0>         0.1299
     45 H13        -2.8792    5.4379    4.4886 H         1 <0>         0.1297
     46 H14        -0.8276    2.2585    2.5122 H         1 <0>         0.1246
@<TRIPOS>BOND
     1    1    2 1
     2    1   34 1
     3    1   35 1
     4    1   36 1
     5    2    3 1
     6    3    8 ar
     7    3    4 ar
     8    4    5 ar
     9    4   37 1
    10    5    6 ar
    11    5   38 1
    12    6   11 1
    13    6    7 ar
    14    7    8 ar
    15    7    9 1
    16    8   39 1
    17    9   10 1
    18   10   11 2
    19   10   12 1
    20   12   17 am
    21   12   13 1
    22   13   14 1
    23   13   15 1
    24   13   27 1
    25   15   16 2
    26   15   20 1
    27   16   17 1
    28   16   19 1
    29   17   18 2
    30   20   21 2
    31   20   22 1
    32   22   26 1
    33   22   23 2
    34   23   24 1
    35   23   40 1
    36   24   25 2
    37   24   41 1
    38   25   26 1
    39   25   42 1
    40   27   32 ar
    41   27   28 ar
    42   28   29 ar
    43   28   43 1
    44   29   30 ar
    45   29   44 1
    46   30   31 ar
    47   30   45 1
    48   31   32 ar
    49   31   33 1
    50   32   46 1
@<TRIPOS>MOLECULE
ZINC33299016
   43    45     0     0     0
SMALL
USER_CHARGES
3-chloro-4-methyl-N-(2-propylsulfonyl-1,3-benzothiazol-6-yl)benzenesulfonamide
@<TRIPOS>ATOM
      1 C1         -2.0384    1.2290   -3.6153 C.3       1 <0>        -0.1464
      2 C2         -1.1031    0.7116   -2.5206 C.3       1 <0>        -0.1197
      3 C3         -1.6028    1.1885   -1.1554 C.3       1 <0>        -0.6037
      4 S1         -0.4939    0.5750    0.1425 S.o2      1 <0>         2.5336
      5 O1         -0.5976   -0.8383    0.2471 O.2       1 <0>        -0.9168
      6 O2          0.7768    1.2023    0.0374 O.2       1 <0>        -0.9221
      7 C4         -1.1750    1.1885    1.6473 C.2       1 <0>        -0.4778
      8 N1         -2.0569    0.6330    2.4327 N.2       1 <0>        -0.3471
      9 C5         -2.4965    1.2190    3.5677 C.ar      1 <0>        -0.0301
     10 C6         -3.4421    0.7255    4.4970 C.ar      1 <0>        -0.0131
     11 C7         -3.7794    1.4446    5.5994 C.ar      1 <0>        -0.1560
     12 C8         -3.2122    2.6911    5.8603 C.ar      1 <0>         0.3008
     13 C9         -2.2801    3.2096    4.9717 C.ar      1 <0>        -0.1488
     14 C10        -1.9371    2.4851    3.8566 C.ar      1 <0>        -0.0622
     15 S2         -0.8279    2.7260    2.4899 S.3       1 <0>         0.0400
     16 N2         -3.5772    3.4099    7.0028 N.2       1 <0>        -1.0847
     17 S3         -4.5725    4.7267    6.8698 S.o2      1 <0>         2.6124
     18 O3         -4.8001    5.1988    8.1906 O.2       1 <0>        -0.9859
     19 O4         -4.0225    5.5502    5.8507 O.2       1 <0>        -1.0241
     20 C11        -6.1240    4.1484    6.2674 C.ar      1 <0>        -0.6534
     21 C12        -6.3412    4.0436    4.9059 C.ar      1 <0>        -0.0192
     22 C13        -7.5564    3.5855    4.4327 C.ar      1 <0>        -0.1336
     23 C14        -8.5589    3.2416    5.3202 C.ar      1 <0>        -0.0429
     24 C15        -8.3440    3.3512    6.6823 C.ar      1 <0>        -0.0612
     25 C16        -7.1254    3.8050    7.1556 C.ar      1 <0>        -0.0103
     26 Cl1        -9.6023    2.9191    7.7975 Cl        1 <0>        -0.0729
     27 C17        -9.8855    2.7471    4.8040 C.3       1 <0>        -0.1284
     28 H1         -1.6791    0.8861   -4.5968 H         1 <0>         0.0634
     29 H2         -2.0543    2.3287   -3.5944 H         1 <0>         0.0608
     30 H3         -3.0542    0.8442   -3.4417 H         1 <0>         0.0605
     31 H4         -1.0872   -0.3881   -2.5415 H         1 <0>         0.0826
     32 H5         -0.0873    1.0964   -2.6941 H         1 <0>         0.0827
     33 H6         -1.6187    2.2882   -1.1345 H         1 <0>         0.1409
     34 H7         -2.6186    0.8038   -0.9819 H         1 <0>         0.1420
     35 H8         -3.9025   -0.2367    4.3278 H         1 <0>         0.1276
     36 H9         -4.5047    1.0407    6.2903 H         1 <0>         0.1325
     37 H10        -1.8292    4.1737    5.1554 H         1 <0>         0.1368
     38 H11        -5.5598    4.3164    4.2121 H         1 <0>         0.1368
     39 H12        -7.7241    3.5000    3.3692 H         1 <0>         0.1326
     40 H13        -6.9571    3.8911    8.2189 H         1 <0>         0.1458
     41 H14       -10.5495    2.5254    5.6525 H         1 <0>         0.0764
     42 H15        -9.7307    1.8336    4.2110 H         1 <0>         0.0768
     43 H16       -10.3445    3.5213    4.1717 H         1 <0>         0.0754
@<TRIPOS>BOND
     1    1    2 1
     2    1   28 1
     3    1   29 1
     4    1   30 1
     5    2    3 1
     6    2   31 1
     7    2   32 1
     8    3    4 1
     9    3   33 1
    10    3   34 1
    11    4    5 2
    12    4    6 2
    13    4    7 1
    14    7   15 1
    15    7    8 2
    16    8    9 1
    17    9   14 ar
    18    9   10 ar
    19   10   11 ar
    20   10   35 1
    21   11   12 ar
    22   11   36 1
    23   12   13 ar
    24   12   16 1
    25   13   14 ar
    26   13   37 1
    27   14   15 1
    28   16   17 1
    29   17   18 2
    30   17   19 2
    31   17   20 1
    32   20   25 ar
    33   20   21 ar
    34   21   22 ar
    35   21   38 1
    36   22   23 ar
    37   22   39 1
    38   23   24 ar
    39   23   27 1
    40   24   25 ar
    41   24   26 1
    42   25   40 1
    43   27   41 1
    44   27   42 1
    45   27   43 1
@<TRIPOS>MOLECULE
ZINC08609777
   52    55     0     0     0
SMALL
USER_CHARGES

@<TRIPOS>ATOM
      1 C1         -0.0399    1.4941    0.4240 C.3       1 <0>        -0.1469
      2 C2         -0.0082   -0.0194    0.2019 C.3       1 <0>        -0.0919
      3 C3          0.8584   -0.3375   -1.0188 C.3       1 <0>        -0.1312
      4 C4          0.8598   -1.8505   -1.2587 C.3       1 <0>         0.1234
      5 N1          1.2851   -2.5247   -0.0245 N.pl3     1 <0>        -0.6045
      6 C5          0.5766   -2.2212    1.2264 C.3       1 <0>         0.1239
      7 C6          0.5784   -0.7040    1.4385 C.3       1 <0>        -0.1307
      8 C7          2.3373   -3.4325   -0.0401 C.ar      1 <0>         0.3277
      9 C8          2.8580   -3.8784   -1.2561 C.ar      1 <0>        -0.1834
     10 C9          3.9051   -4.7814   -1.2222 C.ar      1 <0>        -0.0708
     11 C10         4.3774   -5.1917    0.0292 C.ar      1 <0>         0.0845
     12 N2          3.8199   -4.7138    1.1332 N.ar      1 <0>        -0.1929
     13 N3          2.8515   -3.8720    1.0996 N.ar      1 <0>        -0.3026
     14 C11         5.4982   -6.1590    0.1207 C.ar      1 <0>        -0.0158
     15 C12         6.0878   -6.6574   -1.0403 C.ar      1 <0>        -0.2045
     16 C13         7.1308   -7.5575   -0.9537 C.ar      1 <0>        -0.0678
     17 C14         7.5946   -7.9675    0.2820 C.ar      1 <0>        -0.2529
     18 C15         7.0131   -7.4761    1.4446 C.ar      1 <0>         0.2749
     19 C16         5.9681   -6.5672    1.3661 C.ar      1 <0>        -0.1322
     20 N4          7.4843   -7.8932    2.6918 N.2       1 <0>        -1.0820
     21 S1          8.7360   -8.9734    2.7851 S.o2      1 <0>         2.6017
     22 O1          8.2555  -10.1989    2.2499 O.2       1 <0>        -1.0242
     23 O2          9.8821   -8.3128    2.2662 O.2       1 <0>        -1.0179
     24 C17         9.0507   -9.2596    4.4950 C.ar      1 <0>        -0.6692
     25 C18         8.8434  -10.5150    5.0350 C.ar      1 <0>         0.0253
     26 C19         9.0902  -10.7410    6.3757 C.ar      1 <0>        -0.1909
     27 C20         9.5453   -9.7095    7.1801 C.ar      1 <0>         0.1640
     28 C21         9.7533   -8.4522    6.6405 C.ar      1 <0>        -0.2191
     29 C22         9.5111   -8.2283    5.2959 C.ar      1 <0>         0.2336
     30 F1          9.7191   -7.0028    4.7667 F         1 <0>        -0.1046
     31 F2          9.7858   -9.9306    8.4910 F         1 <0>        -0.1306
     32 H1          0.9735    1.8576    0.5943 H         1 <0>         0.0542
     33 H2         -0.4577    1.9819   -0.4567 H         1 <0>         0.0534
     34 H3         -0.6581    1.7209    1.2926 H         1 <0>         0.0548
     35 H4         -1.0217   -0.3828    0.0320 H         1 <0>         0.0702
     36 H5          0.4534    0.1694   -1.8946 H         1 <0>         0.0736
     37 H6          1.8782    0.0034   -0.8397 H         1 <0>         0.0674
     38 H7         -0.1443   -2.1788   -1.5270 H         1 <0>         0.0656
     39 H8          1.5530   -2.0920   -2.0645 H         1 <0>         0.0821
     40 H9         -0.4506   -2.5798    1.1607 H         1 <0>         0.0591
     41 H10         1.0830   -2.7074    2.0603 H         1 <0>         0.0983
     42 H11         1.6008   -0.3597    1.5944 H         1 <0>         0.0675
     43 H12        -0.0259   -0.4581    2.3116 H         1 <0>         0.0729
     44 H13         2.4550   -3.5291   -2.1952 H         1 <0>         0.1420
     45 H14         4.3445   -5.1585   -2.1339 H         1 <0>         0.1503
     46 H15         5.7281   -6.3395   -2.0078 H         1 <0>         0.1056
     47 H16         7.5855   -7.9429   -1.8544 H         1 <0>         0.1069
     48 H17         8.4109   -8.6719    0.3443 H         1 <0>         0.0980
     49 H18         5.5174   -6.1808    2.2683 H         1 <0>         0.1272
     50 H19         8.4878  -11.3198    4.4087 H         1 <0>         0.1592
     51 H20         8.9279  -11.7223    6.7965 H         1 <0>         0.1469
     52 H21        10.1083   -7.6472    7.2670 H         1 <0>         0.1525
@<TRIPOS>BOND
     1    1    2 1
     2    1   32 1
     3    1   33 1
     4    1   34 1
     5    2    7 1
     6    2    3 1
     7    2   35 1
     8    3    4 1
     9    3   36 1
    10    3   37 1
    11    4    5 1
    12    4   38 1
    13    4   39 1
    14    5    6 1
    15    5    8 1
    16    6    7 1
    17    6   40 1
    18    6   41 1
    19    7   42 1
    20    7   43 1
    21    8   13 ar
    22    8    9 ar
    23    9   10 ar
    24    9   44 1
    25   10   11 ar
    26   10   45 1
    27   11   12 ar
    28   11   14 1
    29   12   13 ar
    30   14   19 ar
    31   14   15 ar
    32   15   16 ar
    33   15   46 1
    34   16   17 ar
    35   16   47 1
    36   17   18 ar
    37   17   48 1
    38   18   19 ar
    39   18   20 1
    40   19   49 1
    41   20   21 1
    42   21   22 2
    43   21   23 2
    44   21   24 1
    45   24   29 ar
    46   24   25 ar
    47   25   26 ar
    48   25   50 1
    49   26   27 ar
    50   26   51 1
    51   27   28 ar
    52   27   31 1
    53   28   29 ar
    54   28   52 1
    55   29   30 1
@<TRIPOS>MOLECULE
ZINC40025440
   54    57     0     0     0
SMALL
USER_CHARGES

@<TRIPOS>ATOM
      1 C1         -0.4151    1.9833    0.9029 C.2       1 <0>        -0.1837
      2 C2         -0.1524    0.7566    0.5257 C.2       1 <0>        -0.1566
      3 C3          1.2604    0.2358    0.5861 C.3       1 <0>         0.1617
      4 N1          1.2938   -0.9947    1.3804 N.am      1 <0>        -0.6085
      5 C4          1.5012   -1.0809    2.8307 C.3       1 <0>         0.2626
      6 H1          2.4735   -0.6656    3.0956 H         1 <0>         0.0716
      7 C5          1.4525   -2.5509    3.1767 C.2       1 <0>        -0.5000
      8 C6          1.2371   -3.2178    2.0186 C.2       1 <0>         0.2643
      9 C7          1.1341   -2.2451    0.9102 C.2       1 <0>         0.5116
     10 O1          0.9369   -2.5324   -0.2537 O.2       1 <0>        -0.5347
     11 O2          1.1281   -4.5606    1.8959 O.3       1 <0>        -0.6524
     12 C8          1.6084   -3.1410    4.5094 C.2       1 <0>         0.5023
     13 O3          0.6828   -3.7431    5.0202 O.2       1 <0>        -0.4740
     14 C9          2.8906   -3.0044    5.2330 C.ar      1 <0>        -0.1358
     15 C10         3.9881   -2.4074    4.6089 C.ar      1 <0>        -0.0657
     16 C11         5.1810   -2.2827    5.2899 C.ar      1 <0>        -0.1386
     17 C12         5.2920   -2.7481    6.5885 C.ar      1 <0>        -0.1081
     18 C13         4.2085   -3.3411    7.2128 C.ar      1 <0>        -0.1381
     19 C14         3.0079   -3.4665    6.5457 C.ar      1 <0>        -0.0758
     20 C15         0.4071   -0.3402    3.5555 C.ar      1 <0>        -0.0302
     21 C16        -0.9139   -0.5327    3.1945 C.ar      1 <0>        -0.1118
     22 C17        -1.9199    0.1452    3.8574 C.ar      1 <0>        -0.0837
     23 C18        -1.6076    1.0176    4.8824 C.ar      1 <0>        -0.2142
     24 C19        -0.2833    1.2125    5.2463 C.ar      1 <0>         0.1216
     25 C20         0.7241    0.5261    4.5834 C.ar      1 <0>        -0.1437
     26 O4          0.0265    2.0699    6.2541 O.3       1 <0>        -0.3108
     27 C21        -1.0621    2.7375    6.8956 C.3       1 <0>         0.1024
     28 C22        -0.5297    3.6401    7.9786 C.ar      1 <0>        -0.0916
     29 C23        -0.3651    3.1559    9.2629 C.ar      1 <0>        -0.0949
     30 C24         0.1231    3.9839   10.2564 C.ar      1 <0>        -0.1237
     31 C25         0.4473    5.2958    9.9655 C.ar      1 <0>        -0.1133
     32 C26         0.2835    5.7797    8.6810 C.ar      1 <0>        -0.1249
     33 C27        -0.2007    4.9505    7.6865 C.ar      1 <0>        -0.0959
     34 H2          0.3810    2.6215    1.2571 H         1 <0>         0.0933
     35 H3         -1.4269    2.3579    0.8554 H         1 <0>         0.0935
     36 H4         -0.9485    0.1184    0.1714 H         1 <0>         0.1074
     37 H5          1.6139    0.0263   -0.4235 H         1 <0>         0.0868
     38 H6          1.9041    0.9843    1.0483 H         1 <0>         0.0788
     39 H7          3.9030   -2.0445    3.5953 H         1 <0>         0.1330
     40 H8          6.0305   -1.8213    4.8085 H         1 <0>         0.1211
     41 H9          6.2285   -2.6483    7.1171 H         1 <0>         0.1176
     42 H10         4.3021   -3.7024    8.2263 H         1 <0>         0.1197
     43 H11         2.1619   -3.9255    7.0355 H         1 <0>         0.1272
     44 H12        -1.1601   -1.2137    2.3932 H         1 <0>         0.1165
     45 H13        -2.9508   -0.0068    3.5737 H         1 <0>         0.1177
     46 H14        -2.3938    1.5476    5.3995 H         1 <0>         0.1191
     47 H15         1.7556    0.6726    4.8681 H         1 <0>         0.1250
     48 H16        -1.6066    3.3321    6.1621 H         1 <0>         0.0684
     49 H17        -1.7328    1.9991    7.3350 H         1 <0>         0.0689
     50 H18        -0.6184    2.1309    9.4902 H         1 <0>         0.1249
     51 H19         0.2511    3.6058   11.2599 H         1 <0>         0.1241
     52 H20         0.8281    5.9429   10.7418 H         1 <0>         0.1223
     53 H21         0.5364    6.8048    8.4537 H         1 <0>         0.1236
     54 H22        -0.3252    5.3275    6.6821 H         1 <0>         0.1239
@<TRIPOS>BOND
     1    1    2 2
     2    1   34 1
     3    1   35 1
     4    2    3 1
     5    2   36 1
     6    3    4 1
     7    3   37 1
     8    3   38 1
     9    4    9 am
    10    4    5 1
    11    5    6 1
    12    5    7 1
    13    5   20 1
    14    7    8 2
    15    7   12 1
    16    8    9 1
    17    8   11 1
    18    9   10 2
    19   12   13 2
    20   12   14 1
    21   14   19 ar
    22   14   15 ar
    23   15   16 ar
    24   15   39 1
    25   16   17 ar
    26   16   40 1
    27   17   18 ar
    28   17   41 1
    29   18   19 ar
    30   18   42 1
    31   19   43 1
    32   20   25 ar
    33   20   21 ar
    34   21   22 ar
    35   21   44 1
    36   22   23 ar
    37   22   45 1
    38   23   24 ar
    39   23   46 1
    40   24   25 ar
    41   24   26 1
    42   25   47 1
    43   26   27 1
    44   27   28 1
    45   27   48 1
    46   27   49 1
    47   28   33 ar
    48   28   29 ar
    49   29   30 ar
    50   29   50 1
    51   30   31 ar
    52   30   51 1
    53   31   32 ar
    54   31   52 1
    55   32   33 ar
    56   32   53 1
    57   33   54 1
@<TRIPOS>MOLECULE
ZINC16095519
   39    41     0     0     0
SMALL
USER_CHARGES

@<TRIPOS>ATOM
      1 C1         -0.0167    1.3789    0.0096 C.ar      1 <0>        -0.2118
      2 C2          1.1694    2.0904    0.0021 C.ar      1 <0>        -0.0728
      3 C3          2.3812    1.4178   -0.0135 C.ar      1 <0>         0.1059
      4 C4          2.4008    0.0230   -0.0211 C.ar      1 <0>         0.2864
      5 C5          1.2079   -0.6832   -0.0130 C.ar      1 <0>        -0.2555
      6 C6          0.0021   -0.0041    0.0020 C.ar      1 <0>         0.0285
      7 Cl1        -1.4907   -0.8903    0.0120 Cl        1 <0>        -0.1065
      8 N1          3.6218   -0.6619   -0.0373 N.2       1 <0>        -1.0483
      9 S1          3.6424   -2.3177   -0.0464 S.o2      1 <0>         2.5884
     10 O1          3.1095   -2.7373    1.2023 O.2       1 <0>        -1.0254
     11 O2          3.0839   -2.7241   -1.2882 O.2       1 <0>        -1.0088
     12 C7          5.3319   -2.8176   -0.0664 C.ar      1 <0>        -0.5998
     13 C8          5.8607   -3.5097    1.0072 C.ar      1 <0>        -0.0151
     14 C9          7.1857   -3.9021    0.9920 C.ar      1 <0>        -0.1146
     15 C10         7.9839   -3.6025   -0.0977 C.ar      1 <0>        -0.0447
     16 C11         7.4555   -2.9106   -1.1721 C.ar      1 <0>        -0.1113
     17 C12         6.1275   -2.5226   -1.1589 C.ar      1 <0>         0.0646
     18 Cl2         5.4618   -1.6592   -2.5099 Cl        1 <0>        -0.0180
     19 Br1         9.7972   -4.1384   -0.1175 Br        1 <0>        -0.0410
     20 N2          3.5834    2.1370   -0.0220 N.pl3     1 <0>        -0.6432
     21 C13         4.2175    2.5374   -1.2881 C.3       1 <0>         0.1227
     22 C14         4.5352    4.0354   -1.2170 C.3       1 <0>         0.0468
     23 O3          5.2753    4.3035   -0.0236 O.3       1 <0>        -0.3882
     24 C15         4.5653    4.0137    1.1829 C.3       1 <0>         0.0472
     25 C16         4.2462    2.5195    1.2349 C.3       1 <0>         0.1220
     26 H1         -0.9600    1.9046    0.0260 H         1 <0>         0.1137
     27 H2          1.1513    3.1703    0.0081 H         1 <0>         0.1131
     28 H3          1.2195   -1.7631   -0.0193 H         1 <0>         0.1076
     29 H4          5.2381   -3.7435    1.8582 H         1 <0>         0.1557
     30 H5          7.5984   -4.4424    1.8312 H         1 <0>         0.1431
     31 H6          8.0783   -2.6766   -2.0229 H         1 <0>         0.1462
     32 H7          5.1389    1.9731   -1.4317 H         1 <0>         0.0522
     33 H8          3.5360    2.3456   -2.1168 H         1 <0>         0.0698
     34 H9          5.1278    4.3235   -2.0854 H         1 <0>         0.0887
     35 H10         3.6057    4.6046   -1.2046 H         1 <0>         0.0460
     36 H11         5.1795    4.2862    2.0412 H         1 <0>         0.0891
     37 H12         3.6359    4.5828    1.2040 H         1 <0>         0.0457
     38 H13         3.5836    2.3158    2.0760 H         1 <0>         0.0707
     39 H14         5.1705    1.9534    1.3495 H         1 <0>         0.0510
@<TRIPOS>BOND
     1    1    6 ar
     2    1    2 ar
     3    1   26 1
     4    2    3 ar
     5    2   27 1
     6    3    4 ar
     7    3   20 1
     8    4    5 ar
     9    4    8 1
    10    5    6 ar
    11    5   28 1
    12    6    7 1
    13    8    9 1
    14    9   10 2
    15    9   11 2
    16    9   12 1
    17   12   17 ar
    18   12   13 ar
    19   13   14 ar
    20   13   29 1
    21   14   15 ar
    22   14   30 1
    23   15   16 ar
    24   15   19 1
    25   16   17 ar
    26   16   31 1
    27   17   18 1
    28   20   25 1
    29   20   21 1
    30   21   22 1
    31   21   32 1
    32   21   33 1
    33   22   23 1
    34   22   34 1
    35   22   35 1
    36   23   24 1
    37   24   25 1
    38   24   36 1
    39   24   37 1
    40   25   38 1
    41   25   39 1
@<TRIPOS>MOLECULE
ZINC09884792
   43    46     0     0     0
SMALL
USER_CHARGES
2-[5-[[5-(4-chlorophenyl)-2-furyl]methylene]-4-oxo-2-thioxo-thiazolidin-3-yl]-2-phenyl-acetic acid
@<TRIPOS>ATOM
      1 C1          5.2368    3.1507    3.1617 C.ar      1 <0>        -0.1163
      2 C2          4.6552    1.9025    3.2824 C.ar      1 <0>        -0.1336
      3 C3          4.1527    1.2631    2.1646 C.ar      1 <0>        -0.1107
      4 C4          4.2320    1.8719    0.9260 C.ar      1 <0>        -0.0736
      5 C5          4.8184    3.1178    0.8045 C.ar      1 <0>        -0.0543
      6 C6          5.3161    3.7595    1.9232 C.ar      1 <0>        -0.1342
      7 C7          3.6846    1.1746   -0.2927 C.3       1 <0>         0.1008
      8 H1          4.1442    0.1906   -0.3853 H         1 <0>         0.1339
      9 C8          3.9949    1.9915   -1.5205 C.2       1 <0>         0.4776
     10 O1          3.0959    2.4063   -2.2131 O.co2     1 <0>        -0.6137
     11 N1          2.2334    1.0253   -0.1594 N.am      1 <0>        -0.4849
     12 C9          1.4787    2.1008   -0.0159 C.2       1 <0>         0.5299
     13 O2          1.9715    3.2144    0.0071 O.2       1 <0>        -0.3946
     14 C10         0.0679    1.9179    0.1108 C.2       1 <0>        -0.2233
     15 C11        -0.9184    2.8493    0.2629 C.2       1 <0>         0.0912
     16 C12        -0.5833    4.1992    0.5024 C.2       1 <0>        -0.0220
     17 C13        -1.4699    5.2603    0.5543 C.2       1 <0>        -0.1390
     18 C14        -0.7130    6.4049    0.8172 C.2       1 <0>        -0.2070
     19 C15         0.5929    6.0126    0.9066 C.2       1 <0>         0.0656
     20 O3          0.6589    4.6824    0.7154 O.3       1 <0>        -0.0971
     21 C16         1.7411    6.9011    1.1701 C.ar      1 <0>        -0.0240
     22 C17         1.5410    8.2726    1.3468 C.ar      1 <0>        -0.0822
     23 C18         2.6178    9.0967    1.5971 C.ar      1 <0>        -0.1142
     24 C19         3.8967    8.5691    1.6640 C.ar      1 <0>        -0.0242
     25 C20         4.1026    7.2112    1.4845 C.ar      1 <0>        -0.1065
     26 C21         3.0339    6.3754    1.2384 C.ar      1 <0>        -0.0696
     27 Cl1         5.2477    9.6145    1.9735 Cl        1 <0>        -0.0695
     28 S1         -0.0554    0.1375    0.0081 S.3       1 <0>         0.0398
     29 C22         1.6861   -0.2102   -0.1853 C.2       1 <0>         0.3059
     30 S2          2.4648   -1.7249   -0.3585 S.2       1 <0>        -0.3814
     31 H2          5.6297    3.6502    4.0350 H         1 <0>         0.1161
     32 H3          4.5936    1.4268    4.2500 H         1 <0>         0.1167
     33 H4          3.6986    0.2878    2.2588 H         1 <0>         0.1129
     34 H5          4.8842    3.5915   -0.1638 H         1 <0>         0.1443
     35 H6          5.7708    4.7345    1.8288 H         1 <0>         0.1171
     36 H7         -1.9551    2.5533    0.1999 H         1 <0>         0.1779
     37 H8         -2.5405    5.2126    0.4202 H         1 <0>         0.1612
     38 H9         -1.0889    7.4116    0.9246 H         1 <0>         0.1560
     39 H10         0.5447    8.6858    1.2907 H         1 <0>         0.1377
     40 H11         2.4641   10.1565    1.7372 H         1 <0>         0.1386
     41 H12         5.1024    6.8062    1.5372 H         1 <0>         0.1392
     42 H13         3.1958    5.3168    1.0983 H         1 <0>         0.1497
     43 O4          5.2698    2.2581   -1.8447 O.co2     1 <0>        -0.7362
@<TRIPOS>BOND
     1    1    6 ar
     2    1    2 ar
     3    1   31 1
     4    2    3 ar
     5    2   32 1
     6    3    4 ar
     7    3   33 1
     8    4    5 ar
     9    4    7 1
    10    5    6 ar
    11    5   34 1
    12    6   35 1
    13    7    8 1
    14    7    9 1
    15    7   11 1
    16    9   10 2
    17    9   43 1
    18   11   29 1
    19   11   12 am
    20   12   13 2
    21   12   14 1
    22   14   15 2
    23   14   28 1
    24   15   16 1
    25   15   36 1
    26   16   20 1
    27   16   17 2
    28   17   18 1
    29   17   37 1
    30   18   19 2
    31   18   38 1
    32   19   20 1
    33   19   21 1
    34   21   26 ar
    35   21   22 ar
    36   22   23 ar
    37   22   39 1
    38   23   24 ar
    39   23   40 1
    40   24   25 ar
    41   24   27 1
    42   25   26 ar
    43   25   41 1
    44   26   42 1
    45   28   29 1
    46   29   30 2
@<TRIPOS>MOLECULE
ZINC32944041
   48    51     0     0     0
SMALL
USER_CHARGES
(2R)-N-(2-bromo-4-methyl-phenyl)-4-(cyclopropanecarbonyl)-2-methyl-2,3-dihydro-1,4-benzothiazine-6-sulfonamide
@<TRIPOS>ATOM
      1 C1         -4.8171    0.8880    4.7088 C.3       1 <0>        -0.0934
      2 C2         -3.5959    0.5175    3.9072 C.ar      1 <0>        -0.1731
      3 C3         -3.7245    0.1710    2.5745 C.ar      1 <0>        -0.0720
      4 C4         -2.6078   -0.1696    1.8367 C.ar      1 <0>        -0.2303
      5 C5         -1.3540   -0.1640    2.4345 C.ar      1 <0>         0.2605
      6 C6         -1.2286    0.1790    3.7753 C.ar      1 <0>        -0.1292
      7 C7         -2.3497    0.5242    4.5060 C.ar      1 <0>        -0.0668
      8 Br1         0.4746    0.1808    4.5968 Br        1 <0>        -0.0749
      9 N1         -0.2222   -0.5081    1.6909 N.2       1 <0>        -1.0430
     10 S1         -0.1219   -0.0863    0.0926 S.o2      1 <0>         2.5890
     11 O1         -1.3129   -0.5531   -0.5261 O.2       1 <0>        -1.0295
     12 O2          1.1704   -0.4775   -0.3503 O.2       1 <0>        -0.9931
     13 C8         -0.1699    1.6733    0.0141 C.ar      1 <0>        -0.6361
     14 C9          1.0069    2.3979    0.0681 C.ar      1 <0>        -0.0286
     15 C10         0.9694    3.7771    0.0095 C.ar      1 <0>        -0.1072
     16 C11        -0.2470    4.4397   -0.1038 C.ar      1 <0>        -0.0886
     17 C12        -1.4327    3.7142   -0.1653 C.ar      1 <0>         0.1188
     18 C13        -1.3812    2.3234   -0.1067 C.ar      1 <0>        -0.0443
     19 N2         -2.6841    4.3213   -0.2950 N.am      1 <0>        -0.5532
     20 C14        -2.9246    5.7248    0.0260 C.3       1 <0>         0.0922
     21 C15        -1.9308    6.5896   -0.7645 C.3       1 <0>        -0.1033
     22 H1         -2.1731    6.4388   -1.8268 H         1 <0>         0.0995
     23 S2         -0.2607    6.2035   -0.1579 S.3       1 <0>        -0.0899
     24 C16        -2.2363    8.0713   -0.5361 C.3       1 <0>        -0.1357
     25 C17        -3.7172    3.5767   -0.7365 C.2       1 <0>         0.5005
     26 O3         -3.5559    2.3995   -0.9801 O.2       1 <0>        -0.4965
     27 C18        -5.0727    4.2068   -0.9276 C.3       1 <0>        -0.2894
     28 C19        -6.1899    3.7828    0.0279 C.3       1 <0>        -0.0902
     29 C20        -6.2055    3.3079   -1.4272 C.3       1 <0>        -0.0964
     30 H2         -5.7091    0.8256    4.0681 H         1 <0>         0.0546
     31 H3         -4.7091    1.9149    5.0880 H         1 <0>         0.0526
     32 H4         -4.9244    0.1939    5.5554 H         1 <0>         0.0549
     33 H5         -4.6995    0.1672    2.1099 H         1 <0>         0.1063
     34 H6         -2.7092   -0.4396    0.7960 H         1 <0>         0.1546
     35 H7         -2.2527    0.7953    5.5469 H         1 <0>         0.1116
     36 H8          1.9537    1.8859    0.1563 H         1 <0>         0.1404
     37 H9          1.8885    4.3427    0.0515 H         1 <0>         0.1316
     38 H10        -2.2955    1.7503   -0.1520 H         1 <0>         0.1934
     39 H11        -3.9549    5.9929   -0.2508 H         1 <0>         0.1152
     40 H12        -2.7816    5.8839    1.1050 H         1 <0>         0.0905
     41 H13        -1.5217    8.6848   -1.1044 H         1 <0>         0.0716
     42 H14        -2.1474    8.3030    0.5355 H         1 <0>         0.0701
     43 H15        -3.2593    8.2912   -0.8752 H         1 <0>         0.0755
     44 H16        -4.6341    5.1644   -1.2448 H         1 <0>         0.1366
     45 H17        -5.7585    3.2234    0.8711 H         1 <0>         0.1066
     46 H18        -6.7070    4.6766    0.4071 H         1 <0>         0.1097
     47 H19        -6.7355    3.8093   -2.2504 H         1 <0>         0.1096
     48 H20        -5.7871    2.3561   -1.7864 H         1 <0>         0.1193
@<TRIPOS>BOND
     1    1    2 1
     2    1   30 1
     3    1   31 1
     4    1   32 1
     5    2    7 ar
     6    2    3 ar
     7    3    4 ar
     8    3   33 1
     9    4    5 ar
    10    4   34 1
    11    5    6 ar
    12    5    9 1
    13    6    7 ar
    14    6    8 1
    15    7   35 1
    16    9   10 1
    17   10   11 2
    18   10   12 2
    19   10   13 1
    20   13   18 ar
    21   13   14 ar
    22   14   15 ar
    23   14   36 1
    24   15   16 ar
    25   15   37 1
    26   16   23 1
    27   16   17 ar
    28   17   18 ar
    29   17   19 1
    30   18   38 1
    31   19   20 1
    32   19   25 am
    33   20   21 1
    34   20   39 1
    35   20   40 1
    36   21   22 1
    37   21   23 1
    38   21   24 1
    39   24   41 1
    40   24   42 1
    41   24   43 1
    42   25   26 2
    43   25   27 1
    44   27   29 1
    45   27   28 1
    46   27   44 1
    47   28   29 1
    48   28   45 1
    49   28   46 1
    50   29   47 1
    51   29   48 1
@<TRIPOS>MOLECULE
ZINC01115156
   43    46     0     0     0
SMALL
USER_CHARGES

@<TRIPOS>ATOM
      1 C1         -0.0173    1.4248    0.0099 C.3       1 <0>         0.0261
      2 O1          0.0021   -0.0041    0.0020 O.3       1 <0>        -0.2965
      3 C2         -1.2008   -0.6377    0.0101 C.ar      1 <0>         0.1361
      4 C3         -2.3741    0.0994    0.0195 C.ar      1 <0>        -0.2027
      5 C4         -3.5963   -0.5464    0.0277 C.ar      1 <0>        -0.0780
      6 C5         -3.6525   -1.9281    0.0261 C.ar      1 <0>        -0.1483
      7 C6         -2.4869   -2.6704    0.0168 C.ar      1 <0>        -0.0758
      8 C7         -1.2568   -2.0294    0.0032 C.ar      1 <0>         0.1035
      9 N1         -0.0724   -2.7808   -0.0117 N.pl3     1 <0>        -0.4468
     10 C8          0.3552   -3.5948   -1.0162 C.2       1 <0>         0.2498
     11 N2          1.4951   -4.1364   -0.6982 N.2       1 <0>        -0.5012
     12 C9          1.8786   -3.7080    0.5322 C.ar      1 <0>         0.0924
     13 C10         0.8826   -2.8284    0.9895 C.ar      1 <0>        -0.0151
     14 C11         1.0068   -2.2226    2.2317 C.ar      1 <0>        -0.0591
     15 C12         2.1097   -2.4823    3.0160 C.ar      1 <0>        -0.2106
     16 C13         3.1037   -3.3506    2.5690 C.ar      1 <0>         0.2692
     17 C14         2.9903   -3.9681    1.3373 C.ar      1 <0>        -0.1506
     18 N3          4.2188   -3.6053    3.3749 N.2       1 <0>        -1.0843
     19 S1          4.3545   -2.8757    4.8553 S.o2      1 <0>         2.5956
     20 O2          4.5059   -1.4843    4.6100 O.2       1 <0>        -1.0290
     21 O3          3.3080   -3.3975    5.6627 O.2       1 <0>        -1.0289
     22 C15         5.8665   -3.4282    5.5717 C.ar      1 <0>        -0.5978
     23 C16         5.8846   -4.5678    6.3540 C.ar      1 <0>        -0.0181
     24 C17         7.0705   -5.0018    6.9159 C.ar      1 <0>        -0.1173
     25 C18         8.2394   -4.2957    6.6952 C.ar      1 <0>        -0.0547
     26 C19         8.2207   -3.1555    5.9123 C.ar      1 <0>        -0.1175
     27 C20         7.0353   -2.7252    5.3466 C.ar      1 <0>        -0.0182
     28 Br1         9.8620   -4.8887    7.4641 Br        1 <0>        -0.0565
     29 H1          1.0053    1.8021    0.0021 H         1 <0>         0.1029
     30 H2         -0.5445    1.7859   -0.8732 H         1 <0>         0.0541
     31 H3         -0.5275    1.7763    0.9067 H         1 <0>         0.0562
     32 H4         -2.3337    1.1786    0.0207 H         1 <0>         0.1335
     33 H5         -4.5098    0.0298    0.0357 H         1 <0>         0.1280
     34 H6         -4.6096   -2.4283    0.0325 H         1 <0>         0.1304
     35 H7         -2.5338   -3.7494    0.0159 H         1 <0>         0.1360
     36 H8         -0.1746   -3.7664   -1.9415 H         1 <0>         0.2002
     37 H9          0.2401   -1.5482    2.5833 H         1 <0>         0.1005
     38 H10         2.2045   -2.0098    3.9825 H         1 <0>         0.1056
     39 H11         3.7633   -4.6397    0.9940 H         1 <0>         0.1204
     40 H12         4.9720   -5.1188    6.5266 H         1 <0>         0.1466
     41 H13         7.0846   -5.8920    7.5273 H         1 <0>         0.1367
     42 H14         9.1331   -2.6039    5.7397 H         1 <0>         0.1366
     43 H15         7.0214   -1.8372    4.7320 H         1 <0>         0.1465
@<TRIPOS>BOND
     1    1    2 1
     2    1   29 1
     3    1   30 1
     4    1   31 1
     5    2    3 1
     6    3    8 ar
     7    3    4 ar
     8    4    5 ar
     9    4   32 1
    10    5    6 ar
    11    5   33 1
    12    6    7 ar
    13    6   34 1
    14    7    8 ar
    15    7   35 1
    16    8    9 1
    17    9   13 1
    18    9   10 1
    19   10   11 2
    20   10   36 1
    21   11   12 1
    22   12   17 ar
    23   12   13 ar
    24   13   14 ar
    25   14   15 ar
    26   14   37 1
    27   15   16 ar
    28   15   38 1
    29   16   17 ar
    30   16   18 1
    31   17   39 1
    32   18   19 1
    33   19   20 2
    34   19   21 2
    35   19   22 1
    36   22   27 ar
    37   22   23 ar
    38   23   24 ar
    39   23   40 1
    40   24   25 ar
    41   24   41 1
    42   25   26 ar
    43   25   28 1
    44   26   27 ar
    45   26   42 1
    46   27   43 1
@<TRIPOS>MOLECULE
ZINC59136416
   47    50     0     0     0
SMALL
USER_CHARGES

@<TRIPOS>ATOM
      1 C1          0.0195    1.2900    0.7851 C.ar      1 <0>        -0.1704
      2 C2          1.0491    2.0737    0.2850 C.ar      1 <0>        -0.0530
      3 C3          2.1469    1.4897   -0.3157 C.ar      1 <0>        -0.2311
      4 C4          2.2294    0.1101   -0.4238 C.ar      1 <0>         0.1622
      5 C5          1.1879   -0.6912    0.0822 C.ar      1 <0>        -0.1219
      6 C6          0.0792   -0.0810    0.6893 C.ar      1 <0>         0.0371
      7 C7          1.2582   -2.1039   -0.0216 C.2       1 <0>         0.1023
      8 C8          0.1808   -2.8160   -0.5226 C.2       1 <0>        -0.2699
      9 C9         -0.9605   -2.1384   -1.1585 C.2       1 <0>         0.4953
     10 O1         -0.9894   -0.7934   -1.2720 O.3       1 <0>        -0.5761
     11 N1         -1.9559   -2.8767   -1.6161 N.2       1 <0>        -0.5927
     12 C10        -1.9549   -4.2038   -1.5186 C.2       1 <0>         0.5452
     13 S1         -3.2969   -5.0617   -2.1462 S.2       1 <0>        -0.6538
     14 N2         -0.9606   -4.9065   -0.9565 N.am      1 <0>        -0.5093
     15 C11         0.1281   -4.2899   -0.4485 C.2       1 <0>         0.5616
     16 O2          1.0332   -4.9270    0.0570 O.2       1 <0>        -0.5014
     17 C12        -1.0503   -6.3042   -0.9005 C.ar      1 <0>         0.1242
     18 C13        -0.5419   -7.0759   -1.9362 C.ar      1 <0>        -0.0636
     19 C14        -0.6311   -8.4532   -1.8782 C.ar      1 <0>        -0.1226
     20 C15        -1.2266   -9.0647   -0.7902 C.ar      1 <0>        -0.0880
     21 C16        -1.7346   -8.3005    0.2440 C.ar      1 <0>        -0.1494
     22 C17        -1.6435   -6.9211    0.1952 C.ar      1 <0>         0.1252
     23 F1         -2.1348   -6.1743    1.2082 F         1 <0>        -0.1334
     24 O3          3.3065   -0.4642   -1.0138 O.3       1 <0>        -0.3055
     25 C18         4.3226    0.4130   -1.5035 C.3       1 <0>         0.1009
     26 C19         5.4319   -0.3986   -2.1215 C.ar      1 <0>        -0.0899
     27 C20         6.4918   -0.8255   -1.3433 C.ar      1 <0>        -0.0814
     28 C21         7.5094   -1.5699   -1.9094 C.ar      1 <0>        -0.1144
     29 C22         7.4672   -1.8878   -3.2553 C.ar      1 <0>        -0.0256
     30 C23         6.4062   -1.4604   -4.0336 C.ar      1 <0>        -0.1130
     31 C24         5.3864   -0.7208   -3.4650 C.ar      1 <0>        -0.0800
     32 Cl1         8.7453   -2.8223   -3.9672 Cl        1 <0>        -0.0698
     33 H1         -0.8318    1.7587    1.2564 H         1 <0>         0.1233
     34 H2          0.9915    3.1491    0.3657 H         1 <0>         0.1218
     35 H3          2.9426    2.1091   -0.7024 H         1 <0>         0.1257
     36 H4         -0.7250   -0.6864    1.0806 H         1 <0>         0.1244
     37 H5          2.1517   -2.6245    0.2900 H         1 <0>         0.1405
     38 H6         -0.0771   -6.5999   -2.7869 H         1 <0>         0.1290
     39 H7         -0.2354   -9.0535   -2.6842 H         1 <0>         0.1322
     40 H8         -1.2954  -10.1417   -0.7484 H         1 <0>         0.1329
     41 H9         -2.1991   -8.7810    1.0923 H         1 <0>         0.1373
     42 H10         3.8972    1.0782   -2.2549 H         1 <0>         0.0754
     43 H11         4.7209    1.0040   -0.6788 H         1 <0>         0.0752
     44 H12         6.5248   -0.5769   -0.2928 H         1 <0>         0.1354
     45 H13         8.3375   -1.9030   -1.3015 H         1 <0>         0.1363
     46 H14         6.3729   -1.7080   -5.0843 H         1 <0>         0.1368
     47 H15         4.5557   -0.3911   -4.0714 H         1 <0>         0.1362
@<TRIPOS>BOND
     1    1    6 ar
     2    1    2 ar
     3    1   33 1
     4    2    3 ar
     5    2   34 1
     6    3    4 ar
     7    3   35 1
     8    4    5 ar
     9    4   24 1
    10    5    6 ar
    11    5    7 1
    12    6   36 1
    13    7    8 2
    14    7   37 1
    15    8   15 1
    16    8    9 1
    17    9   10 1
    18    9   11 2
    19   11   12 1
    20   12   13 2
    21   12   14 1
    22   14   15 am
    23   14   17 1
    24   15   16 2
    25   17   22 ar
    26   17   18 ar
    27   18   19 ar
    28   18   38 1
    29   19   20 ar
    30   19   39 1
    31   20   21 ar
    32   20   40 1
    33   21   22 ar
    34   21   41 1
    35   22   23 1
    36   24   25 1
    37   25   26 1
    38   25   42 1
    39   25   43 1
    40   26   31 ar
    41   26   27 ar
    42   27   28 ar
    43   27   44 1
    44   28   29 ar
    45   28   45 1
    46   29   30 ar
    47   29   32 1
    48   30   31 ar
    49   30   46 1
    50   31   47 1
@<TRIPOS>MOLECULE
ZINC59364662
   42    44     0     0     0
SMALL
USER_CHARGES

@<TRIPOS>ATOM
      1 C1         -0.0187    1.5258    0.0104 C.3       1 <0>        -0.1468
      2 C2          0.0021   -0.0041    0.0020 C.3       1 <0>         0.0643
      3 O1          0.6709   -0.4649   -1.1737 O.3       1 <0>        -0.3191
      4 C3          0.7757   -1.7968   -1.3345 C.2       1 <0>         0.4986
      5 O2          0.2622   -2.6286   -0.4099 O.3       1 <0>        -0.6247
      6 C4          1.4141   -2.3130   -2.4553 C.2       1 <0>        -0.4610
      7 C5          1.5534   -3.7586   -2.6752 C.2       1 <0>         0.3147
      8 S1          2.4276   -3.8720   -4.2222 S.3       1 <0>        -0.0802
      9 C6          2.6229   -2.1433   -4.6006 C.2       1 <0>        -0.1370
     10 C7          3.2290   -1.5843   -5.6858 C.2       1 <0>        -0.0341
     11 C8          3.7994   -2.4113   -6.6812 C.2       1 <0>         0.0516
     12 C9          4.4453   -1.9822   -7.8232 C.2       1 <0>        -0.1930
     13 C10         4.8449   -3.1367   -8.5140 C.2       1 <0>        -0.1530
     14 C11         4.4376   -4.2001   -7.7852 C.2       1 <0>        -0.0467
     15 O3          3.8146   -3.7608   -6.6811 O.3       1 <0>        -0.1320
     16 I1          4.7389   -6.2100   -8.2933 I         1 <0>         0.0630
     17 C12         1.9751   -1.4610   -3.4767 C.2       1 <0>         0.4230
     18 O4          1.9169   -0.2441   -3.4065 O.2       1 <0>        -0.4863
     19 N1          1.1302   -4.7429   -1.9060 N.2       1 <0>        -0.4662
     20 C13         1.3512   -6.0412   -2.2735 C.ar      1 <0>         0.0920
     21 C14         1.1219   -6.4454   -3.5913 C.ar      1 <0>        -0.1272
     22 C15         1.3462   -7.7559   -3.9570 C.ar      1 <0>        -0.1238
     23 C16         1.7986   -8.6731   -3.0184 C.ar      1 <0>         0.0922
     24 C17         2.0274   -8.2766   -1.7079 C.ar      1 <0>        -0.1883
     25 C18         1.8125   -6.9669   -1.3339 C.ar      1 <0>        -0.0841
     26 O5          2.0179   -9.9644   -3.3837 O.3       1 <0>        -0.3217
     27 C19         2.4831  -10.8559   -2.3684 C.3       1 <0>         0.0297
     28 H1          1.0039    1.9031    0.0027 H         1 <0>         0.0614
     29 H2         -0.5459    1.8868   -0.8726 H         1 <0>         0.0614
     30 H3         -0.5289    1.8773    0.9072 H         1 <0>         0.0675
     31 H4          0.5293   -0.3651    0.8851 H         1 <0>         0.0558
     32 H5         -1.0205   -0.3814    0.0098 H         1 <0>         0.0558
     33 H6          3.2736   -0.5099   -5.7857 H         1 <0>         0.1710
     34 H7          4.6103   -0.9587   -8.1261 H         1 <0>         0.1598
     35 H8          5.3781   -3.1696   -9.4526 H         1 <0>         0.1552
     36 H9          0.7692   -5.7327   -4.3221 H         1 <0>         0.1318
     37 H10         1.1692   -8.0693   -4.9753 H         1 <0>         0.1263
     38 H11         2.3787   -8.9941   -0.9811 H         1 <0>         0.1250
     39 H12         1.9958   -6.6582   -0.3153 H         1 <0>         0.1273
     40 H13         2.6169  -11.8512   -2.7922 H         1 <0>         0.0939
     41 H14         3.4350  -10.4964   -1.9776 H         1 <0>         0.0521
     42 H15         1.7522  -10.9001   -1.5610 H         1 <0>         0.0518
@<TRIPOS>BOND
     1    1    2 1
     2    1   28 1
     3    1   29 1
     4    1   30 1
     5    2    3 1
     6    2   31 1
     7    2   32 1
     8    3    4 1
     9    4    5 1
    10    4    6 2
    11    6    7 1
    12    6   17 1
    13    7   19 2
    14    7    8 1
    15    8    9 1
    16    9   10 2
    17    9   17 1
    18   10   11 1
    19   10   33 1
    20   11   15 1
    21   11   12 2
    22   12   13 1
    23   12   34 1
    24   13   14 2
    25   13   35 1
    26   14   15 1
    27   14   16 1
    28   17   18 2
    29   19   20 1
    30   20   25 ar
    31   20   21 ar
    32   21   22 ar
    33   21   36 1
    34   22   23 ar
    35   22   37 1
    36   23   24 ar
    37   23   26 1
    38   24   25 ar
    39   24   38 1
    40   25   39 1
    41   26   27 1
    42   27   40 1
    43   27   41 1
    44   27   42 1
@<TRIPOS>MOLECULE
ZINC39764984
   46    49     0     0     0
SMALL
USER_CHARGES

@<TRIPOS>ATOM
      1 C1         -0.0187    1.5258    0.0104 C.3       1 <0>        -0.1453
      2 C2          0.0021   -0.0041    0.0020 C.3       1 <0>        -0.1081
      3 C3          0.7421   -0.5109    1.2415 C.3       1 <0>        -0.1052
      4 S1          0.7667   -2.3247    1.2316 S.3       1 <0>        -0.0119
      5 C4          1.6413   -2.7472    2.7016 C.2       1 <0>         0.4342
      6 N1          2.0819   -1.7715    3.4868 N.2       1 <0>        -0.6815
      7 C5          2.6647   -2.0247    4.6493 C.2       1 <0>         0.5209
      8 O1          3.0966   -1.1034    5.3152 O.2       1 <0>        -0.4908
      9 C6          2.7995   -3.4258    5.1561 C.3       1 <0>        -0.2179
     10 H1          2.1137   -3.5516    5.9940 H         1 <0>         0.1188
     11 C7          4.2120   -3.7207    5.6500 C.3       1 <0>         0.0570
     12 H2          4.4154   -3.1407    6.5501 H         1 <0>         0.1177
     13 C8          4.3051   -5.2001    5.9634 C.2       1 <0>        -0.3839
     14 C9          3.5672   -6.1119    5.2034 C.2       1 <0>         0.2984
     15 C10         3.6742   -7.5933    5.4785 C.3       1 <0>        -0.0828
     16 C11         5.0544   -7.9026    6.0636 C.3       1 <0>        -0.1121
     17 C12         5.2503   -7.0595    7.3277 C.3       1 <0>        -0.1348
     18 C13         5.1063   -5.6036    6.9759 C.2       1 <0>         0.3441
     19 O2          5.7884   -4.6842    7.6828 O.3       1 <0>        -0.5891
     20 N2          2.7456   -5.7022    4.2550 N.2       1 <0>        -0.6081
     21 C14         2.4298   -4.4247    4.0947 C.2       1 <0>         0.4900
     22 N3          1.8319   -4.0348    2.9879 N.2       1 <0>        -0.6150
     23 C15         5.2100   -3.3634    4.5788 C.ar      1 <0>        -0.0418
     24 C16         5.1505   -3.9828    3.3443 C.ar      1 <0>        -0.1092
     25 C17         6.0654   -3.6556    2.3612 C.ar      1 <0>        -0.1078
     26 C18         7.0414   -2.7090    2.6116 C.ar      1 <0>        -0.1104
     27 C19         7.1024   -2.0884    3.8461 C.ar      1 <0>        -0.0359
     28 C20         6.1818   -2.4117    4.8289 C.ar      1 <0>        -0.0063
     29 Cl1         6.2522   -1.6281    6.3764 Cl        1 <0>        -0.0301
     30 Cl2         8.3277   -0.8997    4.1610 Cl        1 <0>        -0.0631
     31 H3          1.0039    1.9031    0.0027 H         1 <0>         0.0575
     32 H4         -0.5459    1.8868   -0.8726 H         1 <0>         0.0581
     33 H5         -0.5289    1.8773    0.9072 H         1 <0>         0.0570
     34 H6         -1.0205   -0.3814    0.0098 H         1 <0>         0.0704
     35 H7          0.5123   -0.3556   -0.8948 H         1 <0>         0.0710
     36 H8          1.7647   -0.1336    1.2338 H         1 <0>         0.0942
     37 H9          0.2319   -0.1594    2.1383 H         1 <0>         0.0927
     38 H10         2.9031   -7.8875    6.1905 H         1 <0>         0.0908
     39 H11         3.5412   -8.1463    4.5487 H         1 <0>         0.0918
     40 H12         5.1156   -8.9610    6.3167 H         1 <0>         0.0754
     41 H13         5.8252   -7.6531    5.3344 H         1 <0>         0.0689
     42 H14         4.4977   -7.3318    8.0676 H         1 <0>         0.0879
     43 H15         6.2452   -7.2393    7.7351 H         1 <0>         0.0833
     44 H16         4.3889   -4.7229    3.1479 H         1 <0>         0.1420
     45 H17         6.0181   -4.1401    1.3971 H         1 <0>         0.1329
     46 H18         7.7565   -2.4544    1.8433 H         1 <0>         0.1360
@<TRIPOS>BOND
     1    1    2 1
     2    1   31 1
     3    1   32 1
     4    1   33 1
     5    2    3 1
     6    2   34 1
     7    2   35 1
     8    3    4 1
     9    3   36 1
    10    3   37 1
    11    4    5 1
    12    5   22 1
    13    5    6 2
    14    6    7 1
    15    7    8 2
    16    7    9 1
    17    9   10 1
    18    9   21 1
    19    9   11 1
    20   11   12 1
    21   11   13 1
    22   11   23 1
    23   13   18 2
    24   13   14 1
    25   14   15 1
    26   14   20 2
    27   15   16 1
    28   15   38 1
    29   15   39 1
    30   16   17 1
    31   16   40 1
    32   16   41 1
    33   17   18 1
    34   17   42 1
    35   17   43 1
    36   18   19 1
    37   20   21 1
    38   21   22 2
    39   23   28 ar
    40   23   24 ar
    41   24   25 ar
    42   24   44 1
    43   25   26 ar
    44   25   45 1
    45   26   27 ar
    46   26   46 1
    47   27   28 ar
    48   27   30 1
    49   28   29 1
@<TRIPOS>MOLECULE
ZINC05003739
   39    42     0     0     0
SMALL
USER_CHARGES
2-[(3-benzooxazol-2-ylphenyl)iminomethyl]-4-nitro-phenol
@<TRIPOS>ATOM
      1 C1         -5.1764   -9.2883   -4.2113 C.ar      1 <0>        -0.1201
      2 C2         -3.9006   -9.1020   -4.7234 C.ar      1 <0>        -0.0986
      3 C3         -3.1004   -8.0807   -4.2547 C.ar      1 <0>        -0.0892
      4 C4         -3.5717   -7.2323   -3.2647 C.ar      1 <0>         0.0060
      5 C5         -4.8627   -7.4168   -2.7436 C.ar      1 <0>         0.0282
      6 C6         -5.6616   -8.4556   -3.2282 C.ar      1 <0>        -0.0651
      7 N1         -5.0460   -6.4524   -1.8057 N.2       1 <0>        -0.4773
      8 C7         -3.9637   -5.7197   -1.7384 C.2       1 <0>         0.3117
      9 O1         -3.0487   -6.1661   -2.6194 O.3       1 <0>        -0.2042
     10 C8         -3.7758   -4.5668   -0.8322 C.ar      1 <0>        -0.0252
     11 C9         -4.7994   -4.1874    0.0394 C.ar      1 <0>        -0.0911
     12 C10        -4.6260   -3.1111    0.8866 C.ar      1 <0>        -0.1041
     13 C11        -3.4416   -2.4015    0.8784 C.ar      1 <0>        -0.1423
     14 C12        -2.4095   -2.7693    0.0111 C.ar      1 <0>         0.1109
     15 C13        -2.5801   -3.8524   -0.8504 C.ar      1 <0>        -0.0765
     16 N2         -1.2360   -2.0645    0.0033 N.2       1 <0>        -0.4610
     17 C14        -1.2584   -0.7610    0.0105 C.2       1 <0>         0.2365
     18 C15         0.0021   -0.0041    0.0020 C.ar      1 <0>        -0.2313
     19 C16        -0.0169    1.3945    0.0097 C.ar      1 <0>         0.0349
     20 C17         1.1683    2.0972    0.0022 C.ar      1 <0>        -0.1800
     21 C18         2.3796    1.4250   -0.0130 C.ar      1 <0>        -0.0125
     22 C19         2.4133    0.0441   -0.0207 C.ar      1 <0>        -0.2375
     23 C20         1.2316   -0.6802   -0.0134 C.ar      1 <0>         0.3226
     24 N3          1.1471    3.5772    0.0098 N.pl3     1 <0>         0.0676
     25 O2          0.0838    4.1711    0.0228 O.2       1 <0>        -0.2243
     26 O3          2.1931    4.2013    0.0032 O.3       1 <0>        -0.2223
     27 H1         -5.7931  -10.0916   -4.5865 H         1 <0>         0.1365
     28 H2         -3.5313   -9.7613   -5.4949 H         1 <0>         0.1399
     29 H3         -2.1082   -7.9424   -4.6583 H         1 <0>         0.1365
     30 H4         -6.6558   -8.6045   -2.8335 H         1 <0>         0.1356
     31 H5         -5.7286   -4.7377    0.0509 H         1 <0>         0.1361
     32 H6         -5.4207   -2.8225    1.5585 H         1 <0>         0.1313
     33 H7         -3.3126   -1.5604    1.5434 H         1 <0>         0.1275
     34 H8         -1.7874   -4.1386   -1.5257 H         1 <0>         0.1372
     35 H9         -2.2028   -0.2372    0.0227 H         1 <0>         0.0927
     36 H10        -0.9589    1.9226    0.0170 H         1 <0>         0.1308
     37 H11         3.3035    1.9843   -0.0185 H         1 <0>         0.1263
     38 H12         3.3619   -0.4720   -0.0329 H         1 <0>         0.1235
     39 O4          1.2635   -2.0369   -0.0214 O.3       1 <0>        -0.6097
@<TRIPOS>BOND
     1    1    6 ar
     2    1    2 ar
     3    1   27 1
     4    2    3 ar
     5    2   28 1
     6    3    4 ar
     7    3   29 1
     8    4    9 1
     9    4    5 ar
    10    5    6 ar
    11    5    7 1
    12    6   30 1
    13    7    8 2
    14    8    9 1
    15    8   10 1
    16   10   15 ar
    17   10   11 ar
    18   11   12 ar
    19   11   31 1
    20   12   13 ar
    21   12   32 1
    22   13   14 ar
    23   13   33 1
    24   14   15 ar
    25   14   16 1
    26   15   34 1
    27   16   17 2
    28   17   18 1
    29   17   35 1
    30   18   23 ar
    31   18   19 ar
    32   19   20 ar
    33   19   36 1
    34   20   21 ar
    35   20   24 1
    36   21   22 ar
    37   21   37 1
    38   22   23 ar
    39   22   38 1
    40   23   39 1
    41   24   25 2
    42   24   26 1
@<TRIPOS>MOLECULE
ZINC06224352
   33    35     0     0     0
SMALL
USER_CHARGES
5-(2,4-dichlorophenyl)-4-[(4-nitrophenyl)methyleneamino]-1,2,4-triazole-3-thiol
@<TRIPOS>ATOM
      1 C1          2.8428   -4.3348    0.0370 C.ar      1 <0>        -0.0716
      2 C2          3.3306   -5.6249    0.0183 C.ar      1 <0>        -0.0572
      3 C3          3.5653   -6.2618   -1.1875 C.ar      1 <0>        -0.0318
      4 C4          3.3075   -5.6128   -2.3821 C.ar      1 <0>        -0.0585
      5 C5          2.8141   -4.3247   -2.3784 C.ar      1 <0>        -0.0808
      6 C6          2.5748   -3.6755   -1.1650 C.ar      1 <0>        -0.0035
      7 C7          2.0473   -2.2983   -1.1529 C.2       1 <0>         0.1568
      8 N1          1.8261   -1.6981   -0.0241 N.2       1 <0>        -0.2085
      9 N2          1.3251   -0.3898   -0.0127 N.pl3     1 <0>        -0.3673
     10 C8          0.0021   -0.0041    0.0020 C.2       1 <0>         0.1371
     11 N3         -0.0157    1.3094    0.0092 N.2       1 <0>        -0.2294
     12 N4          1.1852    1.7660    0.0002 N.2       1 <0>        -0.3248
     13 C9          2.0472    0.7736   -0.0133 C.2       1 <0>         0.3875
     14 S1          3.8035    0.9141   -0.0288 S.3       1 <0>        -0.7742
     15 C10        -1.1739   -0.8987    0.0080 C.ar      1 <0>         0.0345
     16 C11        -1.0010   -2.2840   -0.0074 C.ar      1 <0>        -0.1045
     17 C12        -2.1023   -3.1140    0.0031 C.ar      1 <0>        -0.0986
     18 C13        -3.3787   -2.5764    0.0183 C.ar      1 <0>        -0.0308
     19 C14        -3.5580   -1.2037    0.0283 C.ar      1 <0>        -0.0980
     20 C15        -2.4636   -0.3619    0.0233 C.ar      1 <0>        -0.0078
     21 Cl1        -2.6896    1.3592    0.0353 Cl        1 <0>        -0.0162
     22 Cl2        -4.7596   -3.6284    0.0253 Cl        1 <0>        -0.0635
     23 N5          4.0951   -7.6440   -1.1996 N.pl3     1 <0>         0.0275
     24 O1          4.3031   -8.2072   -2.2593 O.2       1 <0>        -0.1593
     25 O2          4.3230   -8.2180   -0.1498 O.3       1 <0>        -0.1579
     26 H1          2.6643   -3.8372    0.9788 H         1 <0>         0.1613
     27 H2          3.5341   -6.1374    0.9468 H         1 <0>         0.1593
     28 H3          3.4933   -6.1159   -3.3195 H         1 <0>         0.1597
     29 H4          2.6137   -3.8192   -3.3115 H         1 <0>         0.1566
     30 H5          1.8414   -1.7800   -2.1010 H         1 <0>         0.1368
     31 H6         -0.0065   -2.7049   -0.0237 H         1 <0>         0.1393
     32 H7         -1.9693   -4.1857   -0.0043 H         1 <0>         0.1403
     33 H8         -4.5558   -0.7905    0.0397 H         1 <0>         0.1474
@<TRIPOS>BOND
     1    1    6 ar
     2    1    2 ar
     3    1   26 1
     4    2    3 ar
     5    2   27 1
     6    3    4 ar
     7    3   23 1
     8    4    5 ar
     9    4   28 1
    10    5    6 ar
    11    5   29 1
    12    6    7 1
    13    7    8 2
    14    7   30 1
    15    8    9 1
    16    9   13 1
    17    9   10 1
    18   10   11 2
    19   10   15 1
    20   11   12 1
    21   12   13 2
    22   13   14 1
    23   15   20 ar
    24   15   16 ar
    25   16   17 ar
    26   16   31 1
    27   17   18 ar
    28   17   32 1
    29   18   19 ar
    30   18   22 1
    31   19   20 ar
    32   19   33 1
    33   20   21 1
    34   23   24 2
    35   23   25 1
@<TRIPOS>MOLECULE
ZINC28463891
   34    37     0     0     0
SMALL
USER_CHARGES
(2,5-dichlorophenyl)-hydroxy-nitro-BLAHdione
@<TRIPOS>ATOM
      1 C1          1.1608    1.7740    0.0005 C.ar      1 <0>        -0.1068
      2 C2         -0.0126    1.0758    0.0080 C.ar      1 <0>        -0.1030
      3 C3         -1.2399    1.7616    0.0175 C.ar      1 <0>         0.0472
      4 C4         -1.2339    3.1723    0.0300 C.ar      1 <0>        -0.0721
      5 C5         -0.0088    3.8776    0.0217 C.ar      1 <0>        -0.1204
      6 C6          1.1805    3.1635    0.0069 C.ar      1 <0>        -0.0655
      7 C7         -0.0397    5.3474    0.0295 C.2       1 <0>         0.5781
      8 O1          1.0026    5.9741    0.0229 O.2       1 <0>        -0.4853
      9 N1         -1.2152    6.0038    0.0442 N.am      1 <0>        -0.5229
     10 C8         -2.3993    5.3631    0.0525 C.2       1 <0>         0.5765
     11 O2         -3.4331    6.0035    0.0662 O.2       1 <0>        -0.4769
     12 C9         -2.4500    3.8933    0.0455 C.ar      1 <0>        -0.1143
     13 C10        -3.6491    3.1978    0.0531 C.ar      1 <0>        -0.0490
     14 C11        -3.6499    1.8027    0.0455 C.ar      1 <0>         0.3007
     15 C12        -2.4718    1.0851    0.0300 C.ar      1 <0>        -0.2079
     16 N2         -2.5051   -0.3947    0.0223 N.pl3     1 <0>         0.0650
     17 O3         -2.5292   -0.9978   -1.0356 O.2       1 <0>        -0.1715
     18 O4         -2.5084   -1.0093    1.0739 O.3       1 <0>        -0.1711
     19 O5         -4.8350    1.1372    0.0532 O.3       1 <0>        -0.6531
     20 C13        -1.2058    7.4051    0.0518 C.ar      1 <0>         0.1472
     21 C14        -1.1893    8.0940    1.2568 C.ar      1 <0>        -0.0751
     22 C15        -1.1801    9.4762    1.2611 C.ar      1 <0>        -0.0252
     23 C16        -1.1879   10.1734    0.0653 C.ar      1 <0>        -0.0864
     24 C17        -1.2044    9.4900   -1.1362 C.ar      1 <0>        -0.0919
     25 C18        -1.2074    8.1077   -1.1469 C.ar      1 <0>        -0.0127
     26 Cl1        -1.2208    7.2504   -2.6564 Cl        1 <0>        -0.0427
     27 Cl2        -1.1594   10.3387    2.7675 Cl        1 <0>        -0.0532
     28 H1          2.0958    1.2335   -0.0110 H         1 <0>         0.1325
     29 H2          0.0021   -0.0041    0.0020 H         1 <0>         0.1235
     30 H3          2.1241    3.6888    0.0007 H         1 <0>         0.1383
     31 H4         -4.5847    3.7371    0.0652 H         1 <0>         0.1499
     32 H5         -1.1839    7.5505    2.1901 H         1 <0>         0.1467
     33 H6         -1.1807   11.2533    0.0711 H         1 <0>         0.1496
     34 H7         -1.2104   10.0367   -2.0676 H         1 <0>         0.1521
@<TRIPOS>BOND
     1    1    6 ar
     2    1    2 ar
     3    1   28 1
     4    2    3 ar
     5    2   29 1
     6    3   15 ar
     7    3    4 ar
     8    4   12 ar
     9    4    5 ar
    10    5    6 ar
    11    5    7 1
    12    6   30 1
    13    7    8 2
    14    7    9 am
    15    9   10 am
    16    9   20 1
    17   10   11 2
    18   10   12 1
    19   12   13 ar
    20   13   14 ar
    21   13   31 1
    22   14   15 ar
    23   14   19 1
    24   15   16 1
    25   16   17 2
    26   16   18 1
    27   20   25 ar
    28   20   21 ar
    29   21   22 ar
    30   21   32 1
    31   22   23 ar
    32   22   27 1
    33   23   24 ar
    34   23   33 1
    35   24   25 ar
    36   24   34 1
    37   25   26 1
@<TRIPOS>MOLECULE
ZINC36611524
   38    40     0     0     0
SMALL
USER_CHARGES

@<TRIPOS>ATOM
      1 C1         -0.0187    1.5258    0.0104 C.3       1 <0>        -0.1436
      2 C2          0.0021   -0.0041    0.0020 C.3       1 <0>        -0.0194
      3 C3          0.7309   -0.5033    1.2229 C.2       1 <0>         0.1269
      4 N1          2.0101   -0.7387    1.3170 N.2       1 <0>        -0.2873
      5 N2          2.2979   -1.1541    2.4986 N.2       1 <0>        -0.3352
      6 C4          1.2090   -1.2076    3.2315 C.2       1 <0>         0.3756
      7 N3          0.1737   -0.7881    2.4410 N.pl3     1 <0>        -0.3703
      8 N4         -1.1754   -0.6764    2.8017 N.2       1 <0>        -0.2069
      9 C5         -1.9779   -1.6875    2.6400 C.2       1 <0>         0.1944
     10 C6         -3.3892   -1.5706    3.0173 C.2       1 <0>         0.0442
     11 C7         -4.3329   -2.5507    2.9062 C.2       1 <0>        -0.1584
     12 C8         -5.5393   -2.0061    3.3814 C.2       1 <0>        -0.1721
     13 C9         -5.2809   -0.7359    3.7560 C.2       1 <0>        -0.0131
     14 O1         -3.9814   -0.4782    3.5404 O.3       1 <0>        -0.1413
     15 C10        -6.2846    0.2320    4.3277 C.3       1 <0>         0.1414
     16 O2         -6.3053    0.1111    5.7515 O.3       1 <0>        -0.2983
     17 C11        -7.1636    0.9201    6.4270 C.ar      1 <0>         0.1551
     18 C12        -7.9731    1.8078    5.7329 C.ar      1 <0>        -0.1956
     19 C13        -8.8452    2.6291    6.4205 C.ar      1 <0>        -0.0553
     20 C14        -8.9120    2.5678    7.8011 C.ar      1 <0>        -0.0714
     21 C15        -8.1052    1.6828    8.4961 C.ar      1 <0>         0.0097
     22 C16        -7.2352    0.8552    7.8105 C.ar      1 <0>        -0.1316
     23 Cl1        -8.1908    1.6076   10.2284 Cl        1 <0>        -0.0381
     24 Cl2       -10.0081    3.6019    8.6630 Cl        1 <0>        -0.0511
     25 S1          1.1027   -1.7172    4.9149 S.3       1 <0>        -0.7989
     26 H1          1.0039    1.9031    0.0027 H         1 <0>         0.0613
     27 H2         -0.5459    1.8868   -0.8726 H         1 <0>         0.0592
     28 H3         -0.5289    1.8773    0.9072 H         1 <0>         0.0548
     29 H4         -1.0205   -0.3814    0.0098 H         1 <0>         0.0645
     30 H5          0.5123   -0.3556   -0.8948 H         1 <0>         0.0900
     31 H6         -1.6040   -2.6131    2.2278 H         1 <0>         0.1504
     32 H7         -4.1823   -3.5506    2.5268 H         1 <0>         0.1639
     33 H8         -6.4932   -2.5097    3.4360 H         1 <0>         0.1593
     34 H9         -6.0053    1.2493    4.0535 H         1 <0>         0.0880
     35 H10        -7.2740    0.0070    3.9295 H         1 <0>         0.1025
     36 H11        -7.9211    1.8568    4.6552 H         1 <0>         0.1457
     37 H12        -9.4753    3.3200    5.8800 H         1 <0>         0.1470
     38 H13        -6.6091    0.1617    8.3521 H         1 <0>         0.1539
@<TRIPOS>BOND
     1    1    2 1
     2    1   26 1
     3    1   27 1
     4    1   28 1
     5    2    3 1
     6    2   29 1
     7    2   30 1
     8    3    7 1
     9    3    4 2
    10    4    5 1
    11    5    6 2
    12    6    7 1
    13    6   25 1
    14    7    8 1
    15    8    9 2
    16    9   10 1
    17    9   31 1
    18   10   14 1
    19   10   11 2
    20   11   12 1
    21   11   32 1
    22   12   13 2
    23   12   33 1
    24   13   14 1
    25   13   15 1
    26   15   16 1
    27   15   34 1
    28   15   35 1
    29   16   17 1
    30   17   22 ar
    31   17   18 ar
    32   18   19 ar
    33   18   36 1
    34   19   20 ar
    35   19   37 1
    36   20   21 ar
    37   20   24 1
    38   21   22 ar
    39   21   23 1
    40   22   38 1
@<TRIPOS>MOLECULE
ZINC06565155
   44    48     0     0     0
SMALL
USER_CHARGES

@<TRIPOS>ATOM
      1 C1         -0.0184    1.5028    0.0103 C.3       1 <0>        -0.1318
      2 C2          0.0021   -0.0041    0.0020 C.2       1 <0>         0.1263
      3 C3         -1.2035   -0.7323    0.0037 C.2       1 <0>        -0.3102
      4 C4         -1.1854   -2.1258   -0.0040 C.2       1 <0>         0.5076
      5 O1         -2.3515   -2.8016   -0.0018 O.3       1 <0>        -0.5627
      6 N1         -0.0137   -2.8175   -0.0143 N.pl3     1 <0>        -0.4364
      7 C5          0.2628   -4.1752   -0.0242 C.ar      1 <0>         0.0382
      8 C6         -0.5268   -5.3156   -0.0278 C.ar      1 <0>        -0.0734
      9 C7          0.0689   -6.5599   -0.0393 C.ar      1 <0>        -0.1344
     10 C8          1.4515   -6.6773   -0.0468 C.ar      1 <0>        -0.1156
     11 C9          2.2455   -5.5658   -0.0434 C.ar      1 <0>        -0.0910
     12 C10         1.6636   -4.2932   -0.0323 C.ar      1 <0>         0.0800
     13 N2          2.1741   -3.0385   -0.0273 N.2       1 <0>        -0.5168
     14 C11         1.1920   -2.1579   -0.0167 C.2       1 <0>         0.3738
     15 C12         1.2078   -0.6884   -0.0132 C.2       1 <0>        -0.1678
     16 C13         2.4491    0.0256   -0.0211 C.1       1 <0>         0.3030
     17 N3          3.4338    0.5919   -0.0275 N.1       1 <0>        -0.4642
     18 C14        -2.4843   -0.0205    0.0142 C.2       1 <0>         0.2885
     19 N4         -3.6070   -0.6934    0.0158 N.2       1 <0>        -0.4267
     20 C15        -4.7949   -0.0333    0.0255 C.2       1 <0>         0.3595
     21 N5         -6.0278   -0.5235    0.0341 N.2       1 <0>        -0.5066
     22 C16        -7.0807    0.2740    0.0429 C.2       1 <0>         0.1183
     23 C17        -6.8969    1.6316    0.0432 C.2       1 <0>        -0.2047
     24 S1         -5.1113    1.7259    0.0379 S.3       1 <0>        -0.1493
     25 C18        -8.4504   -0.2954    0.0520 C.ar      1 <0>        -0.0188
     26 C19        -9.5591    0.5493    0.0550 C.ar      1 <0>        -0.1071
     27 C20       -10.8310    0.0139    0.0630 C.ar      1 <0>        -0.1246
     28 C21       -11.0068   -1.3582    0.0680 C.ar      1 <0>        -0.1204
     29 C22        -9.9101   -2.2013    0.0655 C.ar      1 <0>        -0.1237
     30 C23        -8.6335   -1.6771    0.0518 C.ar      1 <0>        -0.0845
     31 H1          1.0042    1.8801    0.0026 H         1 <0>         0.0722
     32 H2         -0.5455    1.8639   -0.8728 H         1 <0>         0.0865
     33 H3         -0.5286    1.8543    0.9071 H         1 <0>         0.0866
     34 H4         -1.6034   -5.2298   -0.0212 H         1 <0>         0.1329
     35 H5         -0.5449   -7.4484   -0.0421 H         1 <0>         0.1250
     36 H6          1.9045   -7.6577   -0.0551 H         1 <0>         0.1238
     37 H7          3.3205   -5.6690   -0.0490 H         1 <0>         0.1253
     38 H8         -2.5020    1.0593    0.0205 H         1 <0>         0.1097
     39 H9         -7.6287    2.4259    0.0493 H         1 <0>         0.1897
     40 H10        -9.4230    1.6207    0.0514 H         1 <0>         0.1231
     41 H11       -11.6909    0.6675    0.0656 H         1 <0>         0.1224
     42 H12       -12.0040   -1.7727    0.0742 H         1 <0>         0.1199
     43 H13       -10.0532   -3.2717    0.0702 H         1 <0>         0.1231
     44 H14        -7.7780   -2.3363    0.0450 H         1 <0>         0.1357
@<TRIPOS>BOND
     1    1    2 1
     2    1   31 1
     3    1   32 1
     4    1   33 1
     5    2   15 2
     6    2    3 1
     7    3    4 2
     8    3   18 1
     9    4    5 1
    10    4    6 1
    11    6   14 1
    12    6    7 1
    13    7   12 ar
    14    7    8 ar
    15    8    9 ar
    16    8   34 1
    17    9   10 ar
    18    9   35 1
    19   10   11 ar
    20   10   36 1
    21   11   12 ar
    22   11   37 1
    23   12   13 1
    24   13   14 2
    25   14   15 1
    26   15   16 1
    27   16   17 3
    28   18   19 2
    29   18   38 1
    30   19   20 1
    31   20   24 1
    32   20   21 2
    33   21   22 1
    34   22   23 2
    35   22   25 1
    36   23   24 1
    37   23   39 1
    38   25   30 ar
    39   25   26 ar
    40   26   27 ar
    41   26   40 1
    42   27   28 ar
    43   27   41 1
    44   28   29 ar
    45   28   42 1
    46   29   30 ar
    47   29   43 1
    48   30   44 1
@<TRIPOS>MOLECULE
ZINC65004283
   45    48     0     0     0
SMALL
USER_CHARGES

@<TRIPOS>ATOM
      1 C1         -0.0184    1.5028    0.0103 C.3       1 <0>        -0.1056
      2 C2          0.0021   -0.0041    0.0020 C.ar      1 <0>        -0.0552
      3 C3          0.0057   -0.6882   -1.2000 C.ar      1 <0>        -0.2199
      4 C4          0.0240   -2.0707   -1.2121 C.ar      1 <0>        -0.0694
      5 C5          0.0391   -2.7732   -0.0230 C.ar      1 <0>        -0.2674
      6 C6          0.0360   -2.0893    1.1859 C.ar      1 <0>         0.2812
      7 C7          0.0228   -0.7000    1.1944 C.ar      1 <0>        -0.1500
      8 C8          0.0251    0.0464    2.5036 C.3       1 <0>        -0.0799
      9 N1          0.0513   -2.7965    2.3902 N.2       1 <0>        -1.0808
     10 S1          0.0732   -4.4524    2.3779 S.o2      1 <0>         2.6247
     11 O1         -1.1695   -4.8709    1.8301 O.2       1 <0>        -1.0182
     12 O2          1.3210   -4.8378    1.8179 O.2       1 <0>        -1.0209
     13 C9          0.0885   -4.9857    4.0572 C.2       1 <0>        -0.6588
     14 C10        -0.9601   -5.2633    4.8738 C.2       1 <0>        -0.0457
     15 C11        -0.7152   -5.6704    6.1667 C.2       1 <0>        -0.1414
     16 C12         0.5862   -5.7817    6.5861 C.2       1 <0>        -0.0969
     17 S2          1.4867   -5.3074    5.1193 S.3       1 <0>         0.1969
     18 C13         1.1051   -6.1909    7.9017 C.2       1 <0>         0.0385
     19 C14         0.3693   -6.5543    8.9869 C.2       1 <0>        -0.0020
     20 N2          1.2269   -6.8511    9.9745 N.2       1 <0>        -0.4743
     21 C15         2.4450   -6.6854    9.5411 C.2       1 <0>         0.2095
     22 O3          2.4045   -6.2836    8.2623 O.3       1 <0>        -0.1928
     23 C16         3.6981   -6.9146   10.3462 C.3       1 <0>        -0.0266
     24 C17         3.6084   -8.1210   11.2956 C.3       1 <0>        -0.1213
     25 C18         4.3598   -7.2644   12.3283 C.3       1 <0>        -0.1395
     26 C19         3.7931   -6.0328   11.6025 C.3       1 <0>        -0.1235
     27 H1          1.0042    1.8801    0.0026 H         1 <0>         0.0595
     28 H2         -0.5455    1.8639   -0.8728 H         1 <0>         0.0546
     29 H3         -0.5286    1.8543    0.9071 H         1 <0>         0.0614
     30 H4         -0.0061   -0.1414   -2.1312 H         1 <0>         0.1003
     31 H5          0.0260   -2.6019   -2.1525 H         1 <0>         0.1008
     32 H6          0.0530   -3.8531   -0.0331 H         1 <0>         0.0949
     33 H7         -1.0019    0.2123    2.8290 H         1 <0>         0.0461
     34 H8          0.5541   -0.5398    3.2551 H         1 <0>         0.0705
     35 H9          0.5247    1.0064    2.3736 H         1 <0>         0.0399
     36 H10        -1.9738   -5.1657    4.5142 H         1 <0>         0.1523
     37 H11        -1.5313   -5.8970    6.8368 H         1 <0>         0.1441
     38 H12        -0.7085   -6.5959    9.0429 H         1 <0>         0.1913
     39 H13         4.6012   -6.9038    9.7359 H         1 <0>         0.1188
     40 H14         2.5891   -8.3683   11.5923 H         1 <0>         0.0980
     41 H15         4.1731   -8.9884   10.9540 H         1 <0>         0.0755
     42 H16         3.9877   -7.3811   13.3461 H         1 <0>         0.0765
     43 H17         5.4443   -7.3504   12.2606 H         1 <0>         0.0852
     44 H18         4.5069   -5.2144   11.5086 H         1 <0>         0.0771
     45 H19         2.8243   -5.7092   11.9830 H         1 <0>         0.0925
@<TRIPOS>BOND
     1    1    2 1
     2    1   27 1
     3    1   28 1
     4    1   29 1
     5    2    7 ar
     6    2    3 ar
     7    3    4 ar
     8    3   30 1
     9    4    5 ar
    10    4   31 1
    11    5    6 ar
    12    5   32 1
    13    6    7 ar
    14    6    9 1
    15    7    8 1
    16    8   33 1
    17    8   34 1
    18    8   35 1
    19    9   10 1
    20   10   11 2
    21   10   12 2
    22   10   13 1
    23   13   17 1
    24   13   14 2
    25   14   15 1
    26   14   36 1
    27   15   16 2
    28   15   37 1
    29   16   17 1
    30   16   18 1
    31   18   22 1
    32   18   19 2
    33   19   20 1
    34   19   38 1
    35   20   21 2
    36   21   22 1
    37   21   23 1
    38   23   26 1
    39   23   24 1
    40   23   39 1
    41   24   25 1
    42   24   40 1
    43   24   41 1
    44   25   26 1
    45   25   42 1
    46   25   43 1
    47   26   44 1
    48   26   45 1
@<TRIPOS>MOLECULE
ZINC06781574
   40    42     0     0     0
SMALL
USER_CHARGES
5-(4-tert-butylphenyl)-4-(2-furylmethyleneamino)-1,2,4-triazole-3-thiol
@<TRIPOS>ATOM
      1 C1         -2.8342    3.4636    7.4303 C.3       1 <0>        -0.1392
      2 C2         -1.5672    3.8199    6.6501 C.3       1 <0>        -0.0271
      3 C3         -0.5722    2.6609    6.7365 C.3       1 <0>        -0.1454
      4 C4         -0.9369    5.0790    7.2486 C.3       1 <0>        -0.1398
      5 C5         -1.9203    4.0723    5.2069 C.ar      1 <0>        -0.0766
      6 C6         -2.8100    5.0808    4.8818 C.ar      1 <0>        -0.1124
      7 C7         -3.1375    5.3172    3.5627 C.ar      1 <0>        -0.0849
      8 C8         -2.5694    4.5358    2.5550 C.ar      1 <0>         0.0146
      9 C9         -1.6771    3.5159    2.8905 C.ar      1 <0>        -0.1170
     10 C10        -1.3535    3.2942    4.2130 C.ar      1 <0>        -0.1143
     11 C11        -2.9155    4.7833    1.1398 C.2       1 <0>         0.1544
     12 N1         -3.9254    5.4973    0.6960 N.2       1 <0>        -0.2653
     13 N2         -3.9289    5.5026   -0.5890 N.2       1 <0>        -0.3292
     14 C12        -2.9183    4.7969   -1.0473 C.2       1 <0>         0.3814
     15 N3         -2.2405    4.3092    0.0366 N.pl3     1 <0>        -0.3656
     16 N4         -1.0957    3.5016    0.0265 N.2       1 <0>        -0.2093
     17 C13        -1.2138    2.2058    0.0201 C.2       1 <0>         0.1949
     18 C14        -0.0164    1.3610    0.0095 C.2       1 <0>         0.0158
     19 C15         0.0021   -0.0041    0.0020 C.2       1 <0>        -0.1506
     20 C16         1.3544   -0.3900   -0.0130 C.2       1 <0>        -0.2206
     21 C17         2.0899    0.7412   -0.0139 C.2       1 <0>        -0.0135
     22 O1          1.2598    1.7959   -0.0003 O.3       1 <0>        -0.1508
     23 S1         -2.5147    4.5268   -2.7410 S.3       1 <0>        -0.7872
     24 H1         -3.5496    4.2969    7.3682 H         1 <0>         0.0581
     25 H2         -2.5765    3.2793    8.4837 H         1 <0>         0.0560
     26 H3         -3.2874    2.5584    6.9999 H         1 <0>         0.0566
     27 H4          0.3387    2.9171    6.1756 H         1 <0>         0.0591
     28 H5         -1.0254    1.7557    6.3061 H         1 <0>         0.0589
     29 H6         -0.3145    2.4767    7.7899 H         1 <0>         0.0561
     30 H7         -0.0260    5.3352    6.6877 H         1 <0>         0.0568
     31 H8         -0.6792    4.8948    8.3020 H         1 <0>         0.0561
     32 H9         -1.6523    5.9122    7.1864 H         1 <0>         0.0581
     33 H10        -3.2488    5.6846    5.6624 H         1 <0>         0.1234
     34 H11        -3.8322    6.1047    3.3103 H         1 <0>         0.1339
     35 H12        -1.2378    2.9047    2.1160 H         1 <0>         0.1168
     36 H13        -0.6600    2.5084    4.4736 H         1 <0>         0.1259
     37 H14        -2.2124    1.7445    0.0226 H         1 <0>         0.1515
     38 H15        -0.8556   -0.6604    0.0064 H         1 <0>         0.1585
     39 H16         1.7329   -1.4015   -0.0217 H         1 <0>         0.1548
     40 H17         3.1687    0.7899   -0.0236 H         1 <0>         0.2071
@<TRIPOS>BOND
     1    1    2 1
     2    1   24 1
     3    1   25 1
     4    1   26 1
     5    2    3 1
     6    2    4 1
     7    2    5 1
     8    3   27 1
     9    3   28 1
    10    3   29 1
    11    4   30 1
    12    4   31 1
    13    4   32 1
    14    5   10 ar
    15    5    6 ar
    16    6    7 ar
    17    6   33 1
    18    7    8 ar
    19    7   34 1
    20    8    9 ar
    21    8   11 1
    22    9   10 ar
    23    9   35 1
    24   10   36 1
    25   11   15 1
    26   11   12 2
    27   12   13 1
    28   13   14 2
    29   14   15 1
    30   14   23 1
    31   15   16 1
    32   16   17 2
    33   17   18 1
    34   17   37 1
    35   18   22 1
    36   18   19 2
    37   19   20 1
    38   19   38 1
    39   20   21 2
    40   20   39 1
    41   21   22 1
    42   21   40 1
@<TRIPOS>MOLECULE
ZINC03958172
   40    43     0     0     0
SMALL
USER_CHARGES

@<TRIPOS>ATOM
      1 C1         -0.0166    1.3798    0.0278 C.ar      1 <0>        -0.1113
      2 C2          1.1683    2.0954    0.0389 C.ar      1 <0>        -0.1278
      3 C3          2.3777    1.4337    0.0240 C.ar      1 <0>        -0.0974
      4 C4          2.4053    0.0351   -0.0025 C.ar      1 <0>        -0.0733
      5 C5          1.2031   -0.6808   -0.0136 C.ar      1 <0>        -0.0940
      6 C6          0.0021   -0.0040    0.0016 C.ar      1 <0>        -0.1220
      7 C7          3.6909   -0.6788   -0.0190 C.2       1 <0>        -0.0403
      8 C8          3.7133   -2.0310   -0.0446 C.2       1 <0>        -0.1611
      9 C9          4.9491   -2.7171   -0.0605 C.2       1 <0>         0.2603
     10 C10         4.9765   -4.1077    0.0312 C.2       1 <0>        -0.3111
     11 C11         6.2194   -4.7900    0.0142 C.2       1 <0>         0.2748
     12 C12         7.3806   -4.0458   -0.0946 C.2       1 <0>        -0.3421
     13 C13         7.2930   -2.6527   -0.1839 C.2       1 <0>         0.5165
     14 O1          8.3145   -1.9930   -0.2803 O.2       1 <0>        -0.4914
     15 O2          6.1022   -2.0281   -0.1699 O.3       1 <0>        -0.2714
     16 O3          6.2540   -6.1324    0.1031 O.3       1 <0>        -0.2593
     17 C14         5.1419   -6.8730    0.2097 C.2       1 <0>         0.4621
     18 C15         3.8818   -6.3139    0.2359 C.2       1 <0>        -0.4658
     19 C16         3.7427   -4.8994    0.1469 C.2       1 <0>         0.4493
     20 O4          2.6453   -4.3665    0.1669 O.2       1 <0>        -0.5286
     21 C17         2.6834   -7.1769    0.3556 C.ar      1 <0>         0.0795
     22 C18         1.7660   -7.2502   -0.6921 C.ar      1 <0>        -0.1132
     23 C19         0.6518   -8.0557   -0.5747 C.ar      1 <0>        -0.1274
     24 C20         0.4436   -8.7892    0.5795 C.ar      1 <0>        -0.1488
     25 C21         1.3501   -8.7207    1.6223 C.ar      1 <0>        -0.1271
     26 C22         2.4713   -7.9235    1.5142 C.ar      1 <0>        -0.1066
     27 O5          5.2598   -8.2139    0.2939 O.3       1 <0>        -0.6053
     28 H1         -0.9607    1.9039    0.0441 H         1 <0>         0.1217
     29 H2          1.1452    3.1749    0.0590 H         1 <0>         0.1233
     30 H3          3.3013    1.9935    0.0324 H         1 <0>         0.1264
     31 H4          1.2160   -1.7605   -0.0344 H         1 <0>         0.1391
     32 H5         -0.9267   -0.5551   -0.0070 H         1 <0>         0.1262
     33 H6          4.6171   -0.1233   -0.0107 H         1 <0>         0.1312
     34 H7          2.7871   -2.5864   -0.0529 H         1 <0>         0.2019
     35 H8          8.3434   -4.5348   -0.1101 H         1 <0>         0.1666
     36 H9          1.9272   -6.6774   -1.5934 H         1 <0>         0.1099
     37 H10        -0.0594   -8.1132   -1.3855 H         1 <0>         0.1090
     38 H11        -0.4303   -9.4177    0.6671 H         1 <0>         0.1077
     39 H12         1.1821   -9.2954    2.5211 H         1 <0>         0.1092
     40 H13         3.1808   -7.8745    2.3269 H         1 <0>         0.1104
@<TRIPOS>BOND
     1    1    6 ar
     2    1    2 ar
     3    1   28 1
     4    2    3 ar
     5    2   29 1
     6    3    4 ar
     7    3   30 1
     8    4    5 ar
     9    4    7 1
    10    5    6 ar
    11    5   31 1
    12    6   32 1
    13    7    8 2
    14    7   33 1
    15    8    9 1
    16    8   34 1
    17    9   15 1
    18    9   10 2
    19   10   19 1
    20   10   11 1
    21   11   12 2
    22   11   16 1
    23   12   13 1
    24   12   35 1
    25   13   14 2
    26   13   15 1
    27   16   17 1
    28   17   18 2
    29   17   27 1
    30   18   19 1
    31   18   21 1
    32   19   20 2
    33   21   26 ar
    34   21   22 ar
    35   22   23 ar
    36   22   36 1
    37   23   24 ar
    38   23   37 1
    39   24   25 ar
    40   24   38 1
    41   25   26 ar
    42   25   39 1
    43   26   40 1
@<TRIPOS>MOLECULE
ZINC41627361
   40    42     0     0     0
SMALL
USER_CHARGES

@<TRIPOS>ATOM
      1 C1         -0.0187    1.5258    0.0104 C.3       1 <0>        -0.1412
      2 C2          0.0021   -0.0041    0.0020 C.3       1 <0>        -0.0481
      3 C3          0.7182   -0.4975   -1.2568 C.3       1 <0>        -0.1414
      4 C4          0.7309   -0.5033    1.2229 C.2       1 <0>         0.2013
      5 C5          0.0873   -1.3064    2.1197 C.2       1 <0>        -0.2948
      6 C6          0.7877   -1.7603    3.2510 C.2       1 <0>         0.5301
      7 O1          0.2430   -2.4797    4.0722 O.2       1 <0>        -0.5336
      8 N1          2.0749   -1.3853    3.4111 N.am      1 <0>        -0.6160
      9 H1          2.5772   -1.6870    4.1841 H         1 <0>         0.4207
     10 C7          2.6654   -0.5822    2.4832 C.2       1 <0>         0.3704
     11 N2          2.0022   -0.1649    1.4219 N.2       1 <0>        -0.5367
     12 S1          4.3453   -0.0973    2.7007 S.3       1 <0>        -0.0019
     13 C8          4.6928    0.9420    1.2551 C.3       1 <0>        -0.0466
     14 C9          6.1173    1.4298    1.3179 C.ar      1 <0>        -0.1066
     15 C10         6.4124    2.6175    1.9608 C.ar      1 <0>        -0.0455
     16 C11         7.7180    3.0681    2.0211 C.ar      1 <0>        -0.1923
     17 C12         8.7330    2.3265    1.4376 C.ar      1 <0>         0.1582
     18 C13         8.4343    1.1343    0.7905 C.ar      1 <0>        -0.0636
     19 C14         7.1278    0.6860    0.7374 C.ar      1 <0>        -0.0506
     20 Cl1         9.7021    0.2043    0.0546 Cl        1 <0>        -0.0423
     21 O2         10.0229    2.7535    1.4972 O.3       1 <0>        -0.3157
     22 C15        10.2343    4.1255    1.8421 C.3       1 <0>         0.2207
     23 O3          9.4314    4.4387    2.9865 O.3       1 <0>        -0.3809
     24 C16         8.0271    4.3671    2.7215 C.3       1 <0>         0.1017
     25 H2          1.0039    1.9031    0.0027 H         1 <0>         0.0651
     26 H3         -0.5459    1.8868   -0.8726 H         1 <0>         0.0648
     27 H4         -0.5289    1.8773    0.9072 H         1 <0>         0.0546
     28 H5         -1.0205   -0.3814    0.0098 H         1 <0>         0.0916
     29 H6          1.7408   -0.1202   -1.2645 H         1 <0>         0.0653
     30 H7          0.7330   -1.5874   -1.2628 H         1 <0>         0.0548
     31 H8          0.1910   -0.1364   -2.1398 H         1 <0>         0.0649
     32 H9         -0.9434   -1.5883    1.9628 H         1 <0>         0.1568
     33 H10         4.5481    0.3592    0.3455 H         1 <0>         0.1149
     34 H11         4.0160    1.7964    1.2508 H         1 <0>         0.1151
     35 H12         5.6215    3.1948    2.4164 H         1 <0>         0.1416
     36 H13         6.8958   -0.2434    0.2386 H         1 <0>         0.1476
     37 H14        11.2863    4.2854    2.0784 H         1 <0>         0.1489
     38 H15         9.9437    4.7618    1.0062 H         1 <0>         0.0688
     39 H16         7.7338    5.2022    2.0854 H         1 <0>         0.0794
     40 H17         7.4767    4.4138    3.6611 H         1 <0>         0.1207
@<TRIPOS>BOND
     1    1    2 1
     2    1   25 1
     3    1   26 1
     4    1   27 1
     5    2    3 1
     6    2    4 1
     7    2   28 1
     8    3   29 1
     9    3   30 1
    10    3   31 1
    11    4   11 1
    12    4    5 2
    13    5    6 1
    14    5   32 1
    15    6    7 2
    16    6    8 am
    17    8    9 1
    18    8   10 1
    19   10   11 2
    20   10   12 1
    21   12   13 1
    22   13   14 1
    23   13   33 1
    24   13   34 1
    25   14   19 ar
    26   14   15 ar
    27   15   16 ar
    28   15   35 1
    29   16   24 1
    30   16   17 ar
    31   17   18 ar
    32   17   21 1
    33   18   19 ar
    34   18   20 1
    35   19   36 1
    36   21   22 1
    37   22   23 1
    38   22   37 1
    39   22   38 1
    40   23   24 1
    41   24   39 1
    42   24   40 1
@<TRIPOS>MOLECULE
ZINC61122732
   29    30     0     0     0
SMALL
USER_CHARGES

@<TRIPOS>ATOM
      1 C1         -0.0184    1.5028    0.0103 C.3       1 <0>        -0.1052
      2 C2          0.0021   -0.0041    0.0020 C.ar      1 <0>        -0.0782
      3 C3          0.0057   -0.6877   -1.1984 C.ar      1 <0>        -0.1568
      4 C4          0.0245   -2.0761   -1.2054 C.ar      1 <0>         0.2777
      5 C5          0.0397   -2.7745   -0.0049 C.ar      1 <0>        -0.2448
      6 C6          0.0360   -2.0869    1.1928 C.ar      1 <0>        -0.0903
      7 C7          0.0229   -0.7021    1.1974 C.ar      1 <0>        -0.0215
      8 F1          0.0253   -0.0315    2.3702 F         1 <0>        -0.1630
      9 N1          0.0278   -2.7701   -2.4192 N.2       1 <0>        -1.0749
     10 S1          0.0503   -4.4260   -2.4262 S.o2      1 <0>         2.5956
     11 O1          1.3038   -4.8174   -1.8834 O.2       1 <0>        -1.0252
     12 O2         -1.1866   -4.8512   -1.8707 O.2       1 <0>        -1.0087
     13 C8          0.0487   -4.9399   -4.1116 C.ar      1 <0>        -0.6008
     14 C9          1.1380   -5.6157   -4.6291 C.ar      1 <0>        -0.0146
     15 C10         1.1373   -6.0191   -5.9509 C.ar      1 <0>        -0.1145
     16 C11         0.0464   -5.7468   -6.7571 C.ar      1 <0>        -0.0451
     17 C12        -1.0438   -5.0712   -6.2400 C.ar      1 <0>        -0.1112
     18 C13        -1.0450   -4.6721   -4.9152 C.ar      1 <0>         0.0632
     19 Cl1        -2.4156   -3.8292   -4.2637 Cl        1 <0>        -0.0178
     20 Br1         0.0464   -6.2978   -8.5660 Br        1 <0>        -0.0409
     21 H1          1.0042    1.8801    0.0026 H         1 <0>         0.0641
     22 H2         -0.5455    1.8639   -0.8728 H         1 <0>         0.0643
     23 H3         -0.5286    1.8543    0.9071 H         1 <0>         0.0601
     24 H4         -0.0064   -0.1427   -2.1307 H         1 <0>         0.1220
     25 H5          0.0540   -3.8544   -0.0080 H         1 <0>         0.1047
     26 H6          0.0474   -2.6296    2.1265 H         1 <0>         0.1145
     27 H7          1.9899   -5.8282   -4.0003 H         1 <0>         0.1568
     28 H8          1.9887   -6.5467   -6.3548 H         1 <0>         0.1436
     29 H9         -1.8955   -4.8584   -6.8691 H         1 <0>         0.1469
@<TRIPOS>BOND
     1    1    2 1
     2    1   21 1
     3    1   22 1
     4    1   23 1
     5    2    7 ar
     6    2    3 ar
     7    3    4 ar
     8    3   24 1
     9    4    5 ar
    10    4    9 1
    11    5    6 ar
    12    5   25 1
    13    6    7 ar
    14    6   26 1
    15    7    8 1
    16    9   10 1
    17   10   11 2
    18   10   12 2
    19   10   13 1
    20   13   18 ar
    21   13   14 ar
    22   14   15 ar
    23   14   27 1
    24   15   16 ar
    25   15   28 1
    26   16   17 ar
    27   16   20 1
    28   17   18 ar
    29   17   29 1
    30   18   19 1
@<TRIPOS>MOLECULE
ZINC06748486
   39    42     0     0     0
SMALL
USER_CHARGES

@<TRIPOS>ATOM
      1 C1         -0.0184    1.5028    0.0103 C.3       1 <0>        -0.1053
      2 C2          0.0021   -0.0041    0.0020 C.ar      1 <0>        -0.1024
      3 C3          0.0058   -0.6861   -1.1982 C.ar      1 <0>        -0.1033
      4 C4          0.0258   -2.0684   -1.2075 C.ar      1 <0>        -0.1416
      5 C5          0.0418   -2.7675   -0.0156 C.ar      1 <0>        -0.0954
      6 C6          0.0375   -2.0892    1.1904 C.ar      1 <0>        -0.1277
      7 C7          0.0230   -0.7040    1.2031 C.ar      1 <0>         0.1248
      8 O1          0.0216   -0.0127    2.3686 O.3       1 <0>        -0.2392
      9 C8          0.4221   -0.6080    3.5113 C.ar      1 <0>         0.3629
     10 N1          0.7820    0.1346    4.5549 N.ar      1 <0>        -0.5957
     11 C9          1.1774   -0.4322    5.6858 C.ar      1 <0>         0.3969
     12 N2          1.2318   -1.7494    5.8242 N.ar      1 <0>        -0.5963
     13 C10         0.8868   -2.5517    4.8229 C.ar      1 <0>         0.4617
     14 O2          0.9441   -3.8980    4.9692 O.3       1 <0>        -0.6830
     15 C11         0.4655   -1.9897    3.6224 C.ar      1 <0>        -0.3583
     16 C12         0.0537   -2.8727    2.4754 C.3       1 <0>         0.0083
     17 C13         1.5700    0.4303    6.8268 C.ar      1 <0>         0.0201
     18 C14         1.5155    1.8180    6.7053 C.ar      1 <0>        -0.1114
     19 C15         1.8813    2.6184    7.7685 C.ar      1 <0>        -0.0975
     20 C16         2.3023    2.0480    8.9554 C.ar      1 <0>        -0.2029
     21 C17         2.3599    0.6674    9.0846 C.ar      1 <0>         0.1098
     22 C18         1.9886   -0.1438    8.0247 C.ar      1 <0>        -0.1026
     23 O3          2.7752    0.1110   10.2530 O.3       1 <0>        -0.3170
     24 C19         3.1370    1.0071   11.3057 C.3       1 <0>         0.0296
     25 H1          1.0042    1.8801    0.0026 H         1 <0>         0.0678
     26 H2         -0.5455    1.8639   -0.8728 H         1 <0>         0.0633
     27 H3         -0.5286    1.8543    0.9071 H         1 <0>         0.0724
     28 H4         -0.0074   -0.1399   -2.1297 H         1 <0>         0.1271
     29 H5          0.0285   -2.6021   -2.1465 H         1 <0>         0.1228
     30 H6          0.0575   -3.8473   -0.0254 H         1 <0>         0.1262
     31 H7         -0.9395   -3.2820    2.6603 H         1 <0>         0.0719
     32 H8          0.7672   -3.6921    2.3889 H         1 <0>         0.0816
     33 H9          1.1874    2.2666    5.7793 H         1 <0>         0.1383
     34 H10         1.8390    3.6934    7.6728 H         1 <0>         0.1240
     35 H11         2.5875    2.6787    9.7845 H         1 <0>         0.1232
     36 H12         2.0283   -1.2184    8.1254 H         1 <0>         0.1474
     37 H13         2.2794    1.6277   11.5654 H         1 <0>         0.0520
     38 H14         3.4488    0.4344   12.1792 H         1 <0>         0.0955
     39 H15         3.9587    1.6426   10.9755 H         1 <0>         0.0520
@<TRIPOS>BOND
     1    1    2 1
     2    1   25 1
     3    1   26 1
     4    1   27 1
     5    2    7 ar
     6    2    3 ar
     7    3    4 ar
     8    3   28 1
     9    4    5 ar
    10    4   29 1
    11    5    6 ar
    12    5   30 1
    13    6   16 1
    14    6    7 ar
    15    7    8 1
    16    8    9 1
    17    9   10 ar
    18    9   15 ar
    19   10   11 ar
    20   11   12 ar
    21   11   17 1
    22   12   13 ar
    23   13   15 ar
    24   13   14 1
    25   15   16 1
    26   16   31 1
    27   16   32 1
    28   17   22 ar
    29   17   18 ar
    30   18   19 ar
    31   18   33 1
    32   19   20 ar
    33   19   34 1
    34   20   21 ar
    35   20   35 1
    36   21   22 ar
    37   21   23 1
    38   22   36 1
    39   23   24 1
    40   24   37 1
    41   24   38 1
    42   24   39 1
@<TRIPOS>MOLECULE
ZINC13260024
   42    46     0     0     0
SMALL
USER_CHARGES
3-[[2-methyl-5-(2-thienyl)thieno[3,2-e]pyrimidin-4-yl]sulfanylmethyl]benzofuran-2-carboxylic acid
@<TRIPOS>ATOM
      1 C1         -3.1355   -4.7494   -1.4812 C.3       1 <0>        -0.0829
      2 C2         -3.1881   -4.2642   -0.0554 C.ar      1 <0>         0.3611
      3 N1         -3.5154   -5.1099    0.9025 N.ar      1 <0>        -0.5000
      4 C3         -3.5688   -4.7089    2.1582 C.ar      1 <0>         0.1426
      5 C4         -3.2808   -3.3761    2.5165 C.ar      1 <0>        -0.1884
      6 C5         -3.3832   -3.0866    3.9437 C.2       1 <0>         0.0048
      7 C6         -3.7356   -4.0874    4.7872 C.2       1 <0>        -0.1484
      8 S1         -3.9516   -5.4871    3.7047 S.3       1 <0>         0.1157
      9 C7         -3.1087   -1.7289    4.4586 C.2       1 <0>        -0.1164
     10 C8         -3.7039   -0.5421    4.1231 C.2       1 <0>        -0.1128
     11 C9         -3.2754    0.6123    4.7444 C.2       1 <0>        -0.1510
     12 C10        -2.2818    0.5379    5.6650 C.2       1 <0>        -0.1662
     13 S2         -1.9202   -1.2101    5.6857 S.3       1 <0>         0.0643
     14 C11        -2.9354   -2.5157    1.4400 C.ar      1 <0>         0.2191
     15 N2         -2.9114   -3.0001    0.2075 N.ar      1 <0>        -0.5286
     16 S3         -2.5505   -0.8226    1.7401 S.3       1 <0>         0.0405
     17 C12        -2.2078   -0.2738    0.0497 C.3       1 <0>        -0.0482
     18 C13        -1.8451    1.1889    0.0603 C.2       1 <0>        -0.1707
     19 C14        -2.7593    2.3224   -0.0708 C.ar      1 <0>        -0.1147
     20 C15        -4.1414    2.4448   -0.2349 C.ar      1 <0>        -0.0717
     21 C16        -4.7050    3.6859   -0.3272 C.ar      1 <0>        -0.1418
     22 C17        -3.9137    4.8247   -0.2592 C.ar      1 <0>        -0.1055
     23 C18        -2.5489    4.7256   -0.0977 C.ar      1 <0>        -0.1040
     24 C19        -1.9524    3.4735   -0.0012 C.ar      1 <0>         0.0433
     25 O1         -0.6780    3.0686    0.1617 O.3       1 <0>        -0.1651
     26 C20        -0.6020    1.7215    0.1941 C.2       1 <0>         0.0612
     27 C21         0.6356    0.9486    0.3557 C.2       1 <0>         0.5203
     28 O2          0.5951   -0.2664    0.3774 O.co2     1 <0>        -0.5839
     29 H1         -4.1131   -4.6196   -1.9455 H         1 <0>         0.0892
     30 H2         -2.3919   -4.1747   -2.0334 H         1 <0>         0.0923
     31 H3         -2.8634   -5.8048   -1.4960 H         1 <0>         0.0888
     32 H4         -3.8560   -4.0467    5.8596 H         1 <0>         0.2007
     33 H5         -4.4934   -0.5107    3.3868 H         1 <0>         0.1378
     34 H6         -3.7250    1.5636    4.5008 H         1 <0>         0.1352
     35 H7         -1.8295    1.3315    6.2412 H         1 <0>         0.1866
     36 H8         -3.0935   -0.4240   -0.5677 H         1 <0>         0.0907
     37 H9         -1.3782   -0.8510   -0.3585 H         1 <0>         0.1264
     38 H10        -4.7616    1.5622   -0.2881 H         1 <0>         0.1212
     39 H11        -5.7732    3.7818   -0.4540 H         1 <0>         0.1235
     40 H12        -4.3731    5.7993   -0.3341 H         1 <0>         0.1293
     41 H13        -1.9437    5.6187   -0.0465 H         1 <0>         0.1295
     42 O3          1.8181    1.5860    0.4744 O.co2     1 <0>        -0.7239
@<TRIPOS>BOND
     1    1    2 1
     2    1   29 1
     3    1   30 1
     4    1   31 1
     5    2   15 ar
     6    2    3 ar
     7    3    4 ar
     8    4    8 1
     9    4    5 ar
    10    5    6 1
    11    5   14 ar
    12    6    7 2
    13    6    9 1
    14    7    8 1
    15    7   32 1
    16    9   13 1
    17    9   10 2
    18   10   11 1
    19   10   33 1
    20   11   12 2
    21   11   34 1
    22   12   13 1
    23   12   35 1
    24   14   15 ar
    25   14   16 1
    26   16   17 1
    27   17   18 1
    28   17   36 1
    29   17   37 1
    30   18   26 2
    31   18   19 1
    32   19   24 ar
    33   19   20 ar
    34   20   21 ar
    35   20   38 1
    36   21   22 ar
    37   21   39 1
    38   22   23 ar
    39   22   40 1
    40   23   24 ar
    41   23   41 1
    42   24   25 1
    43   25   26 1
    44   26   27 1
    45   27   28 2
    46   27   42 1
@<TRIPOS>MOLECULE
ZINC27516771
   46    50     0     0     0
SMALL
USER_CHARGES
(4-butoxyphenyl)BLAHone
@<TRIPOS>ATOM
      1 C1          6.3808   10.6515    0.0079 C.3       1 <0>        -0.1532
      2 C2          6.1143    9.1449    0.0002 C.3       1 <0>        -0.1229
      3 C3          4.6051    8.8939    0.0130 C.3       1 <0>        -0.1203
      4 C4          4.3386    7.3873    0.0053 C.3       1 <0>         0.0555
      5 O1          2.9290    7.1529    0.0172 O.3       1 <0>        -0.3160
      6 C5          2.5191    5.8576    0.0123 C.ar      1 <0>         0.1351
      7 C6          1.1630    5.5600    0.0233 C.ar      1 <0>        -0.1559
      8 C7          0.7440    4.2462    0.0193 C.ar      1 <0>        -0.0458
      9 C8          1.6834    3.2166    0.0038 C.ar      1 <0>        -0.0344
     10 C9          3.0442    3.5184   -0.0023 C.ar      1 <0>        -0.0363
     11 C10         3.4572    4.8341   -0.0032 C.ar      1 <0>        -0.2143
     12 C11         1.2359    1.8022   -0.0001 C.2       1 <0>         0.2646
     13 N1          2.0436    0.7334   -0.0136 N.2       1 <0>        -0.5541
     14 C12         1.3189   -0.3644   -0.0123 C.2       1 <0>         0.3742
     15 C13         1.6761   -1.8028   -0.0227 C.2       1 <0>        -0.2598
     16 C14         3.0158   -2.4089   -0.0395 C.2       1 <0>        -0.0392
     17 C15         3.0745   -3.7522   -0.0423 C.2       1 <0>        -0.2594
     18 S1          1.3766   -4.2801   -0.0285 S.3       1 <0>         0.1010
     19 C16         0.6026   -2.6856   -0.0159 C.2       1 <0>         0.1872
     20 N2         -0.6931   -2.2441   -0.0026 N.2       1 <0>        -0.5919
     21 C17        -0.9741   -0.9262    0.0059 C.2       1 <0>         0.6637
     22 O2         -2.1352   -0.5646    0.0178 O.3       1 <0>        -0.5547
     23 N3          0.0021   -0.0041    0.0020 N.pl3     1 <0>        -0.3739
     24 N4         -0.0170    1.3999    0.0097 N.2       1 <0>        -0.3081
     25 C18         4.4910   -4.2593   -0.0551 C.3       1 <0>        -0.0218
     26 C19         5.3419   -3.0436    0.3739 C.3       1 <0>        -0.1110
     27 C20         4.4473   -1.8658   -0.0600 C.3       1 <0>        -0.0586
     28 H1          7.4659   10.8320   -0.0013 H         1 <0>         0.0564
     29 H2          5.9427   11.0967    0.9134 H         1 <0>         0.0558
     30 H3          5.9254   11.1089   -0.8828 H         1 <0>         0.0558
     31 H4          6.5524    8.6997   -0.9053 H         1 <0>         0.0655
     32 H5          6.5697    8.6874    0.8909 H         1 <0>         0.0655
     33 H6          4.1670    9.3391    0.9185 H         1 <0>         0.0737
     34 H7          4.1497    9.3514   -0.8777 H         1 <0>         0.0737
     35 H8          4.7767    6.9421   -0.9001 H         1 <0>         0.0632
     36 H9          4.7939    6.9298    0.8960 H         1 <0>         0.0632
     37 H10         0.4356    6.3582    0.0354 H         1 <0>         0.1335
     38 H11        -0.3109    4.0153    0.0286 H         1 <0>         0.1395
     39 H12         3.7743    2.7227   -0.0102 H         1 <0>         0.1388
     40 H13         4.5114    5.0686   -0.0117 H         1 <0>         0.1299
     41 H14         4.5870   -5.0968    0.6516 H         1 <0>         0.0673
     42 H15         4.7483   -4.6029   -1.0679 H         1 <0>         0.0716
     43 H16         5.5127   -3.0805    1.4599 H         1 <0>         0.0714
     44 H17         6.3086   -3.0693   -0.1504 H         1 <0>         0.0749
     45 H18         4.6960   -1.5259   -1.0762 H         1 <0>         0.0758
     46 H19         4.5289   -1.0208    0.6395 H         1 <0>         0.0748
@<TRIPOS>BOND
     1    1    2 1
     2    1   28 1
     3    1   29 1
     4    1   30 1
     5    2    3 1
     6    2   31 1
     7    2   32 1
     8    3    4 1
     9    3   33 1
    10    3   34 1
    11    4    5 1
    12    4   35 1
    13    4   36 1
    14    5    6 1
    15    6   11 ar
    16    6    7 ar
    17    7    8 ar
    18    7   37 1
    19    8    9 ar
    20    8   38 1
    21    9   10 ar
    22    9   12 1
    23   10   11 ar
    24   10   39 1
    25   11   40 1
    26   12   24 2
    27   12   13 1
    28   13   14 2
    29   14   23 1
    30   14   15 1
    31   15   19 2
    32   15   16 1
    33   16   27 1
    34   16   17 2
    35   17   18 1
    36   17   25 1
    37   18   19 1
    38   19   20 1
    39   20   21 2
    40   21   22 1
    41   21   23 1
    42   23   24 1
    43   25   26 1
    44   25   41 1
    45   25   42 1
    46   26   27 1
    47   26   43 1
    48   26   44 1
    49   27   45 1
    50   27   46 1
@<TRIPOS>MOLECULE
ZINC35693744
   52    54     0     0     0
SMALL
USER_CHARGES

@<TRIPOS>ATOM
      1 C1         -3.9510   -3.0682   -2.6303 C.3       1 <0>        -0.1615
      2 C2         -4.2101   -1.5878   -2.3434 C.3       1 <0>         0.1308
      3 N1         -3.6152   -1.2290   -1.0536 N.pl3     1 <0>        -0.6333
      4 C3         -2.2448   -0.7141   -0.9969 C.3       1 <0>         0.1274
      5 C4         -2.2674    0.8107   -1.1211 C.3       1 <0>        -0.1676
      6 C5         -4.3482   -1.3765    0.1119 C.2       1 <0>         0.5043
      7 O1         -5.6398   -1.7828    0.0532 O.3       1 <0>        -0.7013
      8 C6         -3.7775   -1.1162    1.3038 C.2       1 <0>        -0.4698
      9 C7         -4.5016   -1.4179    2.5469 C.2       1 <0>         0.2329
     10 C8         -5.7105   -2.0214    2.5235 C.2       1 <0>        -0.3043
     11 S1         -6.1003   -2.1331    4.2585 S.3       1 <0>         0.1328
     12 C9         -4.7168   -1.4141    4.8797 C.2       1 <0>         0.3370
     13 N2         -4.3422   -1.1689    6.1185 N.2       1 <0>        -0.5938
     14 C10        -3.2050   -0.5864    6.4618 C.2       1 <0>         0.3115
     15 C11        -2.3045   -0.1837    5.4943 C.2       1 <0>        -0.3957
     16 C12        -2.6663   -0.4324    4.0470 C.3       1 <0>         0.2635
     17 H1         -1.8815   -1.0467    3.6057 H         1 <0>         0.0735
     18 N3         -3.9682   -1.0999    3.7801 N.pl3     1 <0>        -0.5117
     19 C13        -2.6663    0.8953    3.3341 C.ar      1 <0>        -0.0625
     20 C14        -1.6485    1.2062    2.4519 C.ar      1 <0>        -0.0652
     21 C15        -1.6483    2.4239    1.7979 C.ar      1 <0>        -0.1182
     22 C16        -2.6661    3.3317    2.0256 C.ar      1 <0>        -0.1112
     23 C17        -3.6842    3.0219    2.9072 C.ar      1 <0>        -0.1186
     24 C18        -3.6879    1.8007    3.5579 C.ar      1 <0>        -0.0121
     25 Cl1        -4.9700    1.4082    4.6606 Cl        1 <0>        -0.0667
     26 C19        -1.0973    0.4345    5.8421 C.2       1 <0>         0.5336
     27 O2         -0.8059    0.5852    7.0159 O.2       1 <0>        -0.5510
     28 O3         -0.2553    0.8640    4.8763 O.3       1 <0>        -0.3581
     29 C20         0.9585    1.4857    5.3033 C.3       1 <0>         0.0419
     30 C21        -2.8900   -0.3600    7.9180 C.3       1 <0>        -0.0921
     31 H2         -4.4628   -3.3552   -3.5489 H         1 <0>         0.0494
     32 H3         -2.8798   -3.2342   -2.7441 H         1 <0>         0.0423
     33 H4         -4.3260   -3.6698   -1.8023 H         1 <0>         0.0600
     34 H5         -3.7629   -0.9814   -3.1310 H         1 <0>         0.0492
     35 H6         -5.2844   -1.4066   -2.3110 H         1 <0>         0.0740
     36 H7         -1.7903   -0.9945   -0.0467 H         1 <0>         0.0715
     37 H8         -1.6637   -1.1368   -1.8164 H         1 <0>         0.0535
     38 H9         -1.2478    1.1938   -1.0789 H         1 <0>         0.0509
     39 H10        -2.7219    1.0912   -2.0713 H         1 <0>         0.0454
     40 H11        -2.8486    1.2334   -0.3015 H         1 <0>         0.0637
     41 H12        -2.7879   -0.6857    1.3462 H         1 <0>         0.0947
     42 H13        -6.2899   -2.3506    1.6737 H         1 <0>         0.2335
     43 H14        -0.8530    0.4977    2.2740 H         1 <0>         0.1247
     44 H15        -0.8527    2.6666    1.1091 H         1 <0>         0.1218
     45 H16        -2.6653    4.2831    1.5145 H         1 <0>         0.1230
     46 H17        -4.4790    3.7312    3.0852 H         1 <0>         0.1240
     47 H18         1.5410    1.7825    4.4312 H         1 <0>         0.0889
     48 H19         0.7248    2.3666    5.9011 H         1 <0>         0.0505
     49 H20         1.5356    0.7820    5.9033 H         1 <0>         0.0508
     50 H21        -3.7087   -0.7384    8.5300 H         1 <0>         0.0631
     51 H22        -1.9703   -0.8849    8.1767 H         1 <0>         0.0867
     52 H23        -2.7629    0.7071    8.1007 H         1 <0>         0.0841
@<TRIPOS>BOND
     1    1    2 1
     2    1   31 1
     3    1   32 1
     4    1   33 1
     5    2    3 1
     6    2   34 1
     7    2   35 1
     8    3    4 1
     9    3    6 1
    10    4    5 1
    11    4   36 1
    12    4   37 1
    13    5   38 1
    14    5   39 1
    15    5   40 1
    16    6    7 1
    17    6    8 2
    18    8    9 1
    19    8   41 1
    20    9   18 1
    21    9   10 2
    22   10   11 1
    23   10   42 1
    24   11   12 1
    25   12   18 1
    26   12   13 2
    27   13   14 1
    28   14   15 2
    29   14   30 1
    30   15   16 1
    31   15   26 1
    32   16   17 1
    33   16   18 1
    34   16   19 1
    35   19   24 ar
    36   19   20 ar
    37   20   21 ar
    38   20   43 1
    39   21   22 ar
    40   21   44 1
    41   22   23 ar
    42   22   45 1
    43   23   24 ar
    44   23   46 1
    45   24   25 1
    46   26   27 2
    47   26   28 1
    48   28   29 1
    49   29   47 1
    50   29   48 1
    51   29   49 1
    52   30   50 1
    53   30   51 1
    54   30   52 1
@<TRIPOS>MOLECULE
ZINC08600146
   42    45     0     0     0
SMALL
USER_CHARGES

@<TRIPOS>ATOM
      1 C1          2.0111   -1.9928    2.0100 C.3       1 <0>        -0.1160
      2 C2          0.9750   -1.6808    0.9612 C.ar      1 <0>        -0.0324
      3 C3          1.0349   -2.2940   -0.2741 C.ar      1 <0>        -0.1250
      4 C4          0.0850   -2.0082   -1.2376 C.ar      1 <0>        -0.0943
      5 C5         -0.9302   -1.1074   -0.9696 C.ar      1 <0>        -0.1302
      6 C6         -0.9997   -0.4886    0.2619 C.ar      1 <0>        -0.0756
      7 C7         -0.0484   -0.7772    1.2385 C.ar      1 <0>        -0.0335
      8 C8         -0.1218   -0.1198    2.5671 C.2       1 <0>         0.2979
      9 N1          0.0059   -0.7364    3.7557 N.2       1 <0>        -0.5178
     10 C9         -0.1098    0.1293    4.7219 C.2       1 <0>         0.3195
     11 O1         -0.3169    1.3389    4.1858 O.3       1 <0>        -0.0930
     12 N2         -0.3162    1.1586    2.7775 N.2       1 <0>        -0.3316
     13 C10        -0.0248   -0.1783    6.1948 C.3       1 <0>        -0.0341
     14 S1          1.6974   -0.0307    6.7449 S.3       1 <0>         0.0032
     15 C11         1.6305   -0.4153    8.4631 C.ar      1 <0>         0.3348
     16 N3          2.7486   -0.3961    9.1719 N.ar      1 <0>        -0.5749
     17 C12         2.7353   -0.6812   10.4737 C.ar      1 <0>         0.2080
     18 C13         1.5237   -1.0018   11.0840 C.ar      1 <0>        -0.3074
     19 C14         0.3711   -1.0108   10.3037 C.ar      1 <0>         0.4477
     20 N4          0.4610   -0.7110    9.0131 N.ar      1 <0>        -0.6118
     21 O2         -0.8285   -1.3172   10.8550 O.3       1 <0>        -0.6914
     22 C15         3.9913   -0.6583   11.2616 C.ar      1 <0>        -0.0348
     23 C16         3.9691   -0.9635   12.6216 C.ar      1 <0>        -0.0725
     24 C17         5.1400   -0.9414   13.3504 C.ar      1 <0>        -0.1578
     25 C18         6.3371   -0.6160   12.7328 C.ar      1 <0>         0.0923
     26 C19         6.3638   -0.3114   11.3811 C.ar      1 <0>        -0.1610
     27 C20         5.1986   -0.3371   10.6431 C.ar      1 <0>        -0.0543
     28 F1          7.4814   -0.5951   13.4505 F         1 <0>        -0.1451
     29 H1          1.6351   -2.7734    2.6714 H         1 <0>         0.0880
     30 H2          2.9258   -2.3359    1.5264 H         1 <0>         0.0683
     31 H3          2.2221   -1.0949    2.5909 H         1 <0>         0.0653
     32 H4          1.8253   -2.9981   -0.4885 H         1 <0>         0.1316
     33 H5          0.1360   -2.4897   -2.2030 H         1 <0>         0.1280
     34 H6         -1.6695   -0.8877   -1.7256 H         1 <0>         0.1300
     35 H7         -1.7924    0.2148    0.4700 H         1 <0>         0.1281
     36 H8         -0.6450    0.5259    6.7494 H         1 <0>         0.1338
     37 H9         -0.3780   -1.1936    6.3749 H         1 <0>         0.1430
     38 H10         1.4805   -1.2379   12.1370 H         1 <0>         0.1213
     39 H11         3.0365   -1.2166   13.1039 H         1 <0>         0.1391
     40 H12         5.1238   -1.1777   14.4041 H         1 <0>         0.1348
     41 H13         7.2988   -0.0577   10.9039 H         1 <0>         0.1342
     42 H14         5.2211   -0.1044    9.5887 H         1 <0>         0.1457
@<TRIPOS>BOND
     1    1    2 1
     2    1   29 1
     3    1   30 1
     4    1   31 1
     5    2    7 ar
     6    2    3 ar
     7    3    4 ar
     8    3   32 1
     9    4    5 ar
    10    4   33 1
    11    5    6 ar
    12    5   34 1
    13    6    7 ar
    14    6   35 1
    15    7    8 1
    16    8   12 2
    17    8    9 1
    18    9   10 2
    19   10   11 1
    20   10   13 1
    21   11   12 1
    22   13   36 1
    23   13   37 1
    24   13   14 1
    25   14   15 1
    26   15   16 ar
    27   15   20 ar
    28   16   17 ar
    29   17   18 ar
    30   17   22 1
    31   18   19 ar
    32   18   38 1
    33   19   20 ar
    34   19   21 1
    35   22   27 ar
    36   22   23 ar
    37   23   24 ar
    38   23   39 1
    39   24   25 ar
    40   24   40 1
    41   25   26 ar
    42   25   28 1
    43   26   27 ar
    44   26   41 1
    45   27   42 1
@<TRIPOS>MOLECULE
ZINC39998156
   42    44     0     0     0
SMALL
USER_CHARGES

@<TRIPOS>ATOM
      1 C1         -0.0187    1.5258    0.0104 C.3       1 <0>        -0.1459
      2 C2          0.0021   -0.0041    0.0020 C.3       1 <0>        -0.1071
      3 C3         -1.4333   -0.5336    0.0129 C.3       1 <0>        -0.1042
      4 S1         -1.4087   -2.3475    0.0029 S.3       1 <0>        -0.0116
      5 C4         -3.1124   -2.7969    0.0168 C.2       1 <0>        -0.0625
      6 N1         -4.1954   -2.0309    0.0253 N.2       1 <0>        -0.2437
      7 N2         -5.3583   -2.5191    0.0341 N.2       1 <0>        -0.3410
      8 C5         -5.5663   -3.8336    0.0354 C.2       1 <0>         0.3638
      9 S2         -3.8738   -4.4174    0.0153 S.3       1 <0>        -0.0627
     10 N3         -6.7305   -4.5327    0.0448 N.2       1 <0>        -0.5996
     11 C6         -7.8814   -3.8945    0.0542 C.2       1 <0>         0.4647
     12 O1         -7.9047   -2.5412    0.0544 O.3       1 <0>        -0.6250
     13 C7         -9.1386   -4.6495    0.0644 C.2       1 <0>        -0.0117
     14 C8        -10.3517   -3.9767    0.0743 C.2       1 <0>         0.0175
     15 C9        -11.5564   -4.7003    0.0841 C.2       1 <0>         0.0059
     16 C10       -12.8321   -4.1562    0.0889 C.2       1 <0>        -0.1555
     17 C11       -13.7267   -5.2265    0.0984 C.2       1 <0>        -0.1857
     18 C12       -12.9745   -6.3814    0.0991 C.2       1 <0>         0.0339
     19 O2        -11.6723   -6.0455    0.0845 O.3       1 <0>        -0.1497
     20 C13       -13.5087   -7.7565    0.1080 C.ar      1 <0>        -0.0118
     21 C14       -14.8894   -7.9730    0.1108 C.ar      1 <0>        -0.0851
     22 C15       -15.3820   -9.2608    0.1186 C.ar      1 <0>        -0.1084
     23 C16       -14.5118  -10.3385    0.1237 C.ar      1 <0>        -0.0308
     24 C17       -13.1422  -10.1309    0.1214 C.ar      1 <0>        -0.1048
     25 C18       -12.6364   -8.8483    0.1077 C.ar      1 <0>        -0.0853
     26 Cl1       -15.1404  -11.9567    0.1335 Cl        1 <0>        -0.0692
     27 C19        -9.1139   -6.0813    0.0642 C.1       1 <0>         0.2713
     28 N4         -9.0943   -7.2172    0.0641 N.1       1 <0>        -0.4187
     29 H1          1.0039    1.9031    0.0027 H         1 <0>         0.0582
     30 H2         -0.5459    1.8868   -0.8726 H         1 <0>         0.0573
     31 H3         -0.5289    1.8773    0.9072 H         1 <0>         0.0573
     32 H4          0.5123   -0.3556   -0.8948 H         1 <0>         0.0711
     33 H5          0.5293   -0.3651    0.8851 H         1 <0>         0.0711
     34 H6         -1.9435   -0.1821    0.9097 H         1 <0>         0.0898
     35 H7         -1.9605   -0.1726   -0.8702 H         1 <0>         0.0899
     36 H8        -10.3703   -2.8969    0.0744 H         1 <0>         0.1855
     37 H9        -13.0843   -3.1061    0.0861 H         1 <0>         0.1643
     38 H10       -14.8048   -5.1622    0.1047 H         1 <0>         0.1569
     39 H11       -15.5689   -7.1336    0.1072 H         1 <0>         0.1396
     40 H12       -16.4487   -9.4295    0.1212 H         1 <0>         0.1396
     41 H13       -12.4692  -10.9755    0.1257 H         1 <0>         0.1391
     42 H14       -11.5684   -8.6878    0.1011 H         1 <0>         0.1433
@<TRIPOS>BOND
     1    1    2 1
     2    1   29 1
     3    1   30 1
     4    1   31 1
     5    2    3 1
     6    2   32 1
     7    2   33 1
     8    3    4 1
     9    3   34 1
    10    3   35 1
    11    4    5 1
    12    5    9 1
    13    5    6 2
    14    6    7 1
    15    7    8 2
    16    8    9 1
    17    8   10 1
    18   10   11 2
    19   11   12 1
    20   11   13 1
    21   13   14 2
    22   13   27 1
    23   14   15 1
    24   14   36 1
    25   15   19 1
    26   15   16 2
    27   16   17 1
    28   16   37 1
    29   17   18 2
    30   17   38 1
    31   18   19 1
    32   18   20 1
    33   20   25 ar
    34   20   21 ar
    35   21   22 ar
    36   21   39 1
    37   22   23 ar
    38   22   40 1
    39   23   24 ar
    40   23   26 1
    41   24   25 ar
    42   24   41 1
    43   25   42 1
    44   27   28 3
@<TRIPOS>MOLECULE
ZINC12414991
   39    42     0     0     0
SMALL
USER_CHARGES

@<TRIPOS>ATOM
      1 C1         -0.0167    1.3791    0.0096 C.ar      1 <0>        -0.1222
      2 C2          1.1686    2.0921    0.0021 C.ar      1 <0>        -0.1308
      3 C3          2.3774    1.4263   -0.0134 C.ar      1 <0>        -0.0824
      4 C4          2.4023    0.0328   -0.0211 C.ar      1 <0>        -0.0275
      5 C5          1.2050   -0.6804   -0.0130 C.ar      1 <0>        -0.1006
      6 C6          0.0021   -0.0041    0.0020 C.ar      1 <0>        -0.1275
      7 C7          3.6984   -0.6884   -0.0382 C.ar      1 <0>         0.2085
      8 C8          3.7318   -2.0816   -0.0460 C.ar      1 <0>        -0.3086
      9 C9          4.9718   -2.7143   -0.0626 C.ar      1 <0>         0.4474
     10 N1          6.0751   -1.9755   -0.0705 N.ar      1 <0>        -0.6132
     11 C10         6.0073   -0.6515   -0.0627 C.ar      1 <0>         0.3331
     12 N2          4.8473   -0.0134   -0.0521 N.ar      1 <0>        -0.5742
     13 S1          7.5005    0.2838   -0.0737 S.3       1 <0>         0.0031
     14 C11         8.8066   -0.9749   -0.0944 C.3       1 <0>        -0.0358
     15 C12        10.1542   -0.3004   -0.1052 C.2       1 <0>         0.3273
     16 N3         10.8484    0.0300    0.9462 N.2       1 <0>        -0.5235
     17 C13        12.0017    0.6126    0.5722 C.2       1 <0>         0.2909
     18 N4         12.0442    0.6547   -0.7367 N.2       1 <0>        -0.3319
     19 O1         10.8426    0.0552   -1.1976 O.3       1 <0>        -0.0889
     20 C14        13.0509    1.1231    1.4893 C.ar      1 <0>        -0.0157
     21 C15        12.8872    1.0133    2.8687 C.ar      1 <0>        -0.0574
     22 C16        13.8657    1.4896    3.7173 C.ar      1 <0>        -0.0954
     23 C17        15.0080    2.0759    3.2003 C.ar      1 <0>        -0.0701
     24 C18        15.1750    2.1877    1.8308 C.ar      1 <0>        -0.0958
     25 C19        14.2054    1.7085    0.9737 C.ar      1 <0>        -0.0715
     26 Br1        16.3445    2.7270    4.3689 Br        1 <0>        -0.0439
     27 O2          5.0519   -4.0672   -0.0702 O.3       1 <0>        -0.6932
     28 H1         -0.9603    1.9042    0.0260 H         1 <0>         0.1173
     29 H2          1.1481    3.1719    0.0081 H         1 <0>         0.1201
     30 H3          3.3022    1.9840   -0.0199 H         1 <0>         0.1345
     31 H4          1.2185   -1.7603   -0.0192 H         1 <0>         0.1277
     32 H5         -0.9264   -0.5557    0.0079 H         1 <0>         0.1208
     33 H6          2.8176   -2.6567   -0.0389 H         1 <0>         0.1207
     34 H7          8.7212   -1.6017    0.7932 H         1 <0>         0.1440
     35 H8          8.7021   -1.5923   -0.9866 H         1 <0>         0.1349
     36 H9         11.9960    0.5566    3.2730 H         1 <0>         0.1521
     37 H10        13.7398    1.4050    4.7866 H         1 <0>         0.1435
     38 H11        16.0677    2.6466    1.4322 H         1 <0>         0.1419
     39 H12        14.3388    1.7918   -0.0948 H         1 <0>         0.1425
@<TRIPOS>BOND
     1    1    6 ar
     2    1    2 ar
     3    1   28 1
     4    2    3 ar
     5    2   29 1
     6    3    4 ar
     7    3   30 1
     8    4    5 ar
     9    4    7 1
    10    5    6 ar
    11    5   31 1
    12    6   32 1
    13    7    8 ar
    14    7   12 ar
    15    8    9 ar
    16    8   33 1
    17    9   10 ar
    18    9   27 1
    19   10   11 ar
    20   11   13 1
    21   11   12 ar
    22   13   14 1
    23   14   15 1
    24   14   34 1
    25   14   35 1
    26   15   19 1
    27   15   16 2
    28   16   17 1
    29   17   18 2
    30   17   20 1
    31   18   19 1
    32   20   25 ar
    33   20   21 ar
    34   21   22 ar
    35   21   36 1
    36   22   23 ar
    37   22   37 1
    38   23   24 ar
    39   23   26 1
    40   24   25 ar
    41   24   38 1
    42   25   39 1
@<TRIPOS>MOLECULE
ZINC27903427
   39    41     0     0     0
SMALL
USER_CHARGES
2,4-dibromo-6-[(E)-[(Z)-(6-ethoxy-3-methyl-1,3-benzothiazol-2-ylidene)hydrazono]methyl]phenol
@<TRIPOS>ATOM
      1 C1         -8.3991   -5.3509    0.0600 C.3       1 <0>        -0.1545
      2 C2         -6.8871   -5.1173    0.0457 C.3       1 <0>         0.0530
      3 O1         -6.6221   -3.7131    0.0500 O.3       1 <0>        -0.3115
      4 C3         -5.3171   -3.3312    0.0386 C.ar      1 <0>         0.1140
      5 C4         -4.3046   -4.2819    0.0232 C.ar      1 <0>        -0.1732
      6 C5         -2.9814   -3.9119    0.0108 C.ar      1 <0>        -0.0931
      7 C6         -2.6090   -2.5568    0.0140 C.ar      1 <0>         0.1124
      8 C7         -3.6519   -1.6197    0.0297 C.ar      1 <0>        -0.1212
      9 C8         -4.9770   -1.9853    0.0418 C.ar      1 <0>        -0.0755
     10 S1         -2.8059   -0.0575    0.0365 S.3       1 <0>         0.0464
     11 C9         -1.1331   -0.6802    0.0092 C.2       1 <0>         0.3835
     12 N1          0.0021   -0.0041    0.0020 N.2       1 <0>        -0.3837
     13 N2         -0.0154    1.2858    0.0091 N.2       1 <0>        -0.3163
     14 C10         1.1070    1.9543    0.0020 C.2       1 <0>         0.2054
     15 C11         1.0870    3.4247    0.0101 C.ar      1 <0>        -0.2109
     16 C12         2.2861    4.1444    0.0025 C.ar      1 <0>         0.0063
     17 C13         2.2600    5.5237    0.0102 C.ar      1 <0>        -0.2224
     18 C14         1.0507    6.1992    0.0259 C.ar      1 <0>         0.0000
     19 C15        -0.1423    5.4986    0.0335 C.ar      1 <0>        -0.2154
     20 C16        -0.1348    4.1136    0.0196 C.ar      1 <0>         0.3189
     21 O2         -1.3062    3.4250    0.0210 O.3       1 <0>        -0.6112
     22 Br1        -1.7859    6.4335    0.0543 Br        1 <0>        -0.0841
     23 Br2         3.8817    6.4962   -0.0001 Br        1 <0>        -0.0986
     24 N3         -1.3243   -2.0366    0.0038 N.pl3     1 <0>        -0.5255
     25 C17        -0.1698   -2.9383   -0.0124 C.3       1 <0>         0.0740
     26 H1         -8.6031   -6.4318    0.0567 H         1 <0>         0.0775
     27 H2         -8.8498   -4.8899   -0.8313 H         1 <0>         0.0671
     28 H3         -8.8314   -4.8989    0.9649 H         1 <0>         0.0671
     29 H4         -6.4364   -5.5783    0.9370 H         1 <0>         0.0620
     30 H5         -6.4548   -5.5693   -0.8592 H         1 <0>         0.0620
     31 H6         -4.5620   -5.3308    0.0206 H         1 <0>         0.1331
     32 H7         -2.2160   -4.6738   -0.0015 H         1 <0>         0.1278
     33 H8         -5.7488   -1.2299    0.0534 H         1 <0>         0.1423
     34 H9          2.0669    1.4173   -0.0100 H         1 <0>         0.0881
     35 H10         3.2309    3.6213   -0.0090 H         1 <0>         0.1126
     36 H11         1.0390    7.2792    0.0318 H         1 <0>         0.1126
     37 H12         0.7575   -2.3466   -0.0187 H         1 <0>         0.0973
     38 H13        -0.2090   -3.5680   -0.9135 H         1 <0>         0.0668
     39 H14        -0.1910   -3.5773    0.8827 H         1 <0>         0.0669
@<TRIPOS>BOND
     1    1    2 1
     2    1   26 1
     3    1   27 1
     4    1   28 1
     5    2    3 1
     6    2   29 1
     7    2   30 1
     8    3    4 1
     9    4    9 ar
    10    4    5 ar
    11    5    6 ar
    12    5   31 1
    13    6    7 ar
    14    6   32 1
    15    7   24 1
    16    7    8 ar
    17    8    9 ar
    18    8   10 1
    19    9   33 1
    20   10   11 1
    21   11   12 2
    22   11   24 1
    23   12   13 1
    24   13   14 2
    25   14   15 1
    26   14   34 1
    27   15   20 ar
    28   15   16 ar
    29   16   17 ar
    30   16   35 1
    31   17   18 ar
    32   17   23 1
    33   18   19 ar
    34   18   36 1
    35   19   20 ar
    36   19   22 1
    37   20   21 1
    38   24   25 1
    39   25   37 1
    40   25   38 1
    41   25   39 1
@<TRIPOS>MOLECULE
ZINC02067733
   45    48     0     0     0
SMALL
USER_CHARGES

@<TRIPOS>ATOM
      1 C1          0.5450    1.4425    0.0284 C.3       1 <0>        -0.1132
      2 C2          0.2650   -0.0382    0.0137 C.ar      1 <0>        -0.0708
      3 C3          0.2606   -0.7208   -1.1695 C.ar      1 <0>        -0.0507
      4 C4          0.0008   -2.0941   -1.1833 C.ar      1 <0>        -0.0385
      5 C5         -0.2550   -2.7696    0.0137 C.ar      1 <0>        -0.0689
      6 C6         -0.2512   -2.0878    1.1970 C.ar      1 <0>        -0.1484
      7 C7          0.0153   -0.7146    1.2119 C.ar      1 <0>         0.1065
      8 N1          0.0257   -0.0334    2.3961 N.2       1 <0>        -0.4463
      9 C8          0.6853   -0.5089    3.4165 C.2       1 <0>         0.2047
     10 C9          0.5993    0.1589    4.7230 C.ar      1 <0>        -0.0680
     11 C10         1.3100   -0.3447    5.8190 C.ar      1 <0>        -0.0785
     12 C11         1.2265    0.2852    7.0419 C.ar      1 <0>        -0.0694
     13 C12         0.4409    1.4171    7.1942 C.ar      1 <0>        -0.1514
     14 C13        -0.2685    1.9270    6.1194 C.ar      1 <0>         0.1012
     15 C14        -0.1903    1.3070    4.8770 C.ar      1 <0>         0.1464
     16 O1         -0.8799    1.8079    3.8197 O.3       1 <0>        -0.4559
     17 O2         -1.0373    3.0376    6.2777 O.3       1 <0>        -0.2998
     18 C15        -1.0664    3.6263    7.5795 C.3       1 <0>         0.0210
     19 Br1         2.1882   -0.3982    8.5197 Br        1 <0>        -0.0339
     20 C16        -0.0039   -2.8314   -2.4621 C.2       1 <0>         0.2964
     21 N2          0.2276   -2.2996   -3.6365 N.2       1 <0>        -0.4693
     22 C17         0.1412   -3.2715   -4.5803 C.ar      1 <0>         0.0256
     23 C18         0.2899   -3.2827   -5.9697 C.ar      1 <0>        -0.0613
     24 C19         0.1355   -4.4619   -6.6632 C.ar      1 <0>        -0.1176
     25 C20        -0.1669   -5.6375   -5.9916 C.ar      1 <0>        -0.0917
     26 C21        -0.3167   -5.6417   -4.6201 C.ar      1 <0>        -0.0925
     27 C22        -0.1646   -4.4642   -3.9047 C.ar      1 <0>         0.0086
     28 O3         -0.2410   -4.1507   -2.5921 O.3       1 <0>        -0.2089
     29 H1          1.6172    1.6085    0.1335 H         1 <0>         0.0693
     30 H2          0.1982    1.8871   -0.9044 H         1 <0>         0.0690
     31 H3          0.0222    1.9028    0.8668 H         1 <0>         0.0865
     32 H4          0.4574   -0.1993   -2.0945 H         1 <0>         0.1453
     33 H5         -0.4560   -3.8307    0.0026 H         1 <0>         0.1358
     34 H6         -0.4495   -2.6095    2.1216 H         1 <0>         0.1338
     35 H7          1.2945   -1.3932    3.3012 H         1 <0>         0.1195
     36 H8          1.9231   -1.2266    5.7063 H         1 <0>         0.1463
     37 H9          0.3813    1.9039    8.1565 H         1 <0>         0.1455
     38 H10        -1.7725    1.4479    3.7262 H         1 <0>         0.3920
     39 H11        -1.7151    4.5022    7.5677 H         1 <0>         0.1065
     40 H12        -1.4484    2.9009    8.2978 H         1 <0>         0.0587
     41 H13        -0.0580    3.9249    7.8659 H         1 <0>         0.0593
     42 H14         0.5247   -2.3701   -6.4973 H         1 <0>         0.1379
     43 H15         0.2503   -4.4717   -7.7370 H         1 <0>         0.1397
     44 H16        -0.2864   -6.5562   -6.5466 H         1 <0>         0.1426
     45 H17        -0.5526   -6.5610   -4.1047 H         1 <0>         0.1367
@<TRIPOS>BOND
     1    1    2 1
     2    1   29 1
     3    1   30 1
     4    1   31 1
     5    2    7 ar
     6    2    3 ar
     7    3    4 ar
     8    3   32 1
     9    4    5 ar
    10    4   20 1
    11    5    6 ar
    12    5   33 1
    13    6    7 ar
    14    6   34 1
    15    7    8 1
    16    8    9 2
    17    9   10 1
    18    9   35 1
    19   10   15 ar
    20   10   11 ar
    21   11   12 ar
    22   11   36 1
    23   12   13 ar
    24   12   19 1
    25   13   14 ar
    26   13   37 1
    27   14   15 ar
    28   14   17 1
    29   15   16 1
    30   16   38 1
    31   17   18 1
    32   18   39 1
    33   18   40 1
    34   18   41 1
    35   20   28 1
    36   20   21 2
    37   21   22 1
    38   22   27 ar
    39   22   23 ar
    40   23   24 ar
    41   23   42 1
    42   24   25 ar
    43   24   43 1
    44   25   26 ar
    45   25   44 1
    46   26   27 ar
    47   26   45 1
    48   27   28 1
@<TRIPOS>MOLECULE
ZINC39944682
   64    67     0     0     0
SMALL
USER_CHARGES

@<TRIPOS>ATOM
      1 C1         -0.0110    1.5337   -0.2866 C.3       1 <0>        -0.1449
      2 C2         -0.0552    0.0195   -0.0721 C.3       1 <0>        -0.0922
      3 H1          0.3304   -0.4844   -0.9584 H         1 <0>         0.0676
      4 C3          0.8043   -0.3494    1.1387 C.3       1 <0>        -0.0846
      5 C4          2.2572    0.0505    0.8737 C.3       1 <0>        -0.1857
      6 C5          3.1037   -0.3128    2.0664 C.2       1 <0>         0.4854
      7 O1          2.5924   -0.8425    3.0382 O.co2     1 <0>        -0.6896
      8 O2          4.2999   -0.0770    2.0594 O.co2     1 <0>        -0.7168
      9 C6         -1.4974   -0.4177    0.1752 C.3       1 <0>        -0.0643
     10 H2         -1.9327    0.1147    1.0134 H         1 <0>         0.0736
     11 C7         -2.3495   -0.2226   -1.1069 C.3       1 <0>        -0.1195
     12 C8         -3.0845   -1.5743   -1.3536 C.3       1 <0>        -0.1099
     13 C9         -3.0151   -2.2251    0.0331 C.3       1 <0>        -0.0790
     14 H3         -3.6661   -1.6281    0.6982 H         1 <0>         0.0727
     15 C10        -1.5503   -1.9353    0.4313 C.3       1 <0>        -0.0920
     16 C11        -1.3312   -2.3652    1.8429 C.2       1 <0>         0.3519
     17 O3         -0.6045   -1.7502    2.6041 O.2       1 <0>        -0.3750
     18 C12        -2.0665   -3.6275    2.3035 C.3       1 <0>        -0.0767
     19 H4         -1.4117   -4.2121    2.9530 H         1 <0>         0.1281
     20 C13        -2.4514   -4.4314    1.0712 C.3       1 <0>        -0.0763
     21 H5         -1.5308   -4.6230    0.4940 H         1 <0>         0.0944
     22 C14        -3.4135   -3.6540    0.1779 C.3       1 <0>        -0.0707
     23 H6         -4.3973   -3.6581    0.6747 H         1 <0>         0.0781
     24 C15        -3.5825   -4.3906   -1.1468 C.3       1 <0>        -0.1067
     25 C16        -4.1621   -5.7827   -0.8737 C.3       1 <0>        -0.1145
     26 C17        -4.3283   -6.0120    0.6254 C.3       1 <0>        -0.0708
     27 H7         -5.0592   -5.2884    1.0116 H         1 <0>         0.0720
     28 C18        -3.0099   -5.8183    1.3725 C.3       1 <0>        -0.0365
     29 C19        -3.2408   -6.0183    2.8674 C.3       1 <0>        -0.1348
     30 C20        -3.7885   -7.4220    3.1369 C.3       1 <0>        -0.1165
     31 C21        -5.0995   -7.6234    2.3785 C.3       1 <0>        -0.1165
     32 C22        -4.8846   -7.4133    0.8800 C.3       1 <0>        -0.1127
     33 C23        -1.9772   -6.8466    0.8851 C.3       1 <0>        -0.1484
     34 Br1        -3.6749   -3.0880    3.3042 Br        1 <0>        -0.1232
     35 C24        -0.5426   -2.5928   -0.5113 C.3       1 <0>        -0.1444
     36 H8          1.0184    1.8458   -0.4631 H         1 <0>         0.0579
     37 H9         -0.6233    1.7965   -1.1492 H         1 <0>         0.0447
     38 H10        -0.3965    2.0377    0.5997 H         1 <0>         0.0499
     39 H11         0.4371    0.1780    2.0192 H         1 <0>         0.0615
     40 H12         0.7488   -1.4244    1.3098 H         1 <0>         0.0719
     41 H13         2.6244   -0.4768   -0.0067 H         1 <0>         0.0467
     42 H14         2.3127    1.1256    0.7027 H         1 <0>         0.0526
     43 H15        -3.0769    0.5734   -0.9548 H         1 <0>         0.0627
     44 H16        -1.7046    0.0100   -1.9529 H         1 <0>         0.0681
     45 H17        -4.1251   -1.3920   -1.6320 H         1 <0>         0.0623
     46 H18        -2.5869   -2.1683   -2.1094 H         1 <0>         0.0738
     47 H19        -4.2645   -3.8339   -1.7912 H         1 <0>         0.0660
     48 H20        -2.6166   -4.4890   -1.6417 H         1 <0>         0.0637
     49 H21        -5.1454   -5.8534   -1.3539 H         1 <0>         0.0567
     50 H22        -3.5157   -6.5427   -1.3078 H         1 <0>         0.0627
     51 H23        -2.3066   -5.8839    3.4102 H         1 <0>         0.0627
     52 H24        -3.9805   -5.2976    3.2223 H         1 <0>         0.0866
     53 H25        -3.0683   -8.1819    2.8534 H         1 <0>         0.0611
     54 H26        -3.9863   -7.5183    4.2115 H         1 <0>         0.0548
     55 H27        -5.4651   -8.6373    2.5529 H         1 <0>         0.0559
     56 H28        -5.8413   -6.9105    2.7424 H         1 <0>         0.0591
     57 H29        -5.8521   -7.5032    0.3704 H         1 <0>         0.0545
     58 H30        -4.2185   -8.1735    0.4843 H         1 <0>         0.0629
     59 H31        -1.0349   -6.6925    1.4108 H         1 <0>         0.0543
     60 H32        -2.3445   -7.8532    1.0850 H         1 <0>         0.0603
     61 H33        -1.8198   -6.7235   -0.1865 H         1 <0>         0.0567
     62 H34         0.4678   -2.3042   -0.2217 H         1 <0>         0.0785
     63 H35        -0.6422   -3.6766   -0.4511 H         1 <0>         0.0574
     64 H36        -0.7347   -2.2666   -1.5335 H         1 <0>         0.0724
@<TRIPOS>BOND
     1    1    2 1
     2    1   36 1
     3    1   37 1
     4    1   38 1
     5    2    3 1
     6    2    4 1
     7    2    9 1
     8    4    5 1
     9    4   39 1
    10    4   40 1
    11    5    6 1
    12    5   41 1
    13    5   42 1
    14    6    7 2
    15    6    8 1
    16    9   10 1
    17    9   15 1
    18    9   11 1
    19   11   12 1
    20   11   43 1
    21   11   44 1
    22   12   13 1
    23   12   45 1
    24   12   46 1
    25   13   14 1
    26   13   22 1
    27   13   15 1
    28   15   16 1
    29   15   35 1
    30   16   17 2
    31   16   18 1
    32   18   19 1
    33   18   20 1
    34   18   34 1
    35   20   21 1
    36   20   28 1
    37   20   22 1
    38   22   23 1
    39   22   24 1
    40   24   25 1
    41   24   47 1
    42   24   48 1
    43   25   26 1
    44   25   49 1
    45   25   50 1
    46   26   27 1
    47   26   32 1
    48   26   28 1
    49   28   29 1
    50   28   33 1
    51   29   30 1
    52   29   51 1
    53   29   52 1
    54   30   31 1
    55   30   53 1
    56   30   54 1
    57   31   32 1
    58   31   55 1
    59   31   56 1
    60   32   57 1
    61   32   58 1
    62   33   59 1
    63   33   60 1
    64   33   61 1
    65   35   62 1
    66   35   63 1
    67   35   64 1
@<TRIPOS>MOLECULE
ZINC20522828
   43    46     0     0     0
SMALL
USER_CHARGES

@<TRIPOS>ATOM
      1 C1          9.5429    2.4614   -3.5064 C.ar      1 <0>        -0.1130
      2 C2          9.8255    1.1110   -3.5922 C.ar      1 <0>        -0.1240
      3 C3          9.0634    0.1990   -2.8862 C.ar      1 <0>        -0.0941
      4 C4          8.0188    0.6376   -2.0941 C.ar      1 <0>        -0.0925
      5 C5          7.7367    1.9881   -2.0076 C.ar      1 <0>        -0.0959
      6 C6          8.4980    2.8999   -2.7146 C.ar      1 <0>        -0.1249
      7 C7          7.1873   -0.3566   -1.3252 C.3       1 <0>         0.1023
      8 O1          7.7644   -0.5630   -0.0343 O.3       1 <0>        -0.3084
      9 C8          7.1320   -1.4377    0.7916 C.ar      1 <0>         0.1195
     10 C9          5.9819   -2.0881    0.3641 C.ar      1 <0>        -0.1945
     11 C10         5.3340   -2.9790    1.1996 C.ar      1 <0>        -0.0884
     12 C11         5.8258   -3.2281    2.4645 C.ar      1 <0>        -0.1190
     13 C12         6.9820   -2.5794    2.9034 C.ar      1 <0>        -0.0553
     14 C13         7.6379   -1.6841    2.0563 C.ar      1 <0>        -0.0539
     15 C14         7.5115   -2.8429    4.2567 C.2       1 <0>         0.5296
     16 O2          6.9420   -2.3916    5.2302 O.2       1 <0>        -0.3738
     17 N1          8.6264   -3.5840    4.4116 N.am      1 <0>        -0.4849
     18 C15         9.3380   -3.9699    3.3137 C.2       1 <0>         0.5137
     19 O3          8.9429   -3.6208    2.0771 O.3       1 <0>        -0.5499
     20 C16        10.4966   -4.7427    3.5107 C.ar      1 <0>        -0.2361
     21 C17        11.2850   -5.1800    2.4355 C.ar      1 <0>         0.0185
     22 C18        12.4000   -5.9271    2.6793 C.ar      1 <0>        -0.1032
     23 C19        12.7661   -6.2622    3.9816 C.ar      1 <0>        -0.0336
     24 C20        12.0218   -5.8538    5.0497 C.ar      1 <0>        -0.0556
     25 C21        10.8689   -5.0831    4.8388 C.ar      1 <0>         0.2423
     26 N2         10.1108   -4.6605    5.8607 N.2       1 <0>        -0.5381
     27 C22         9.0281   -3.9302    5.6463 C.2       1 <0>         0.4774
     28 S1          8.1023   -3.4130    6.9903 S.2       1 <0>        -0.5899
     29 Cl1        12.4992   -6.2859    6.6618 Cl        1 <0>        -0.0436
     30 Cl2        13.3758   -6.4684    1.3494 Cl        1 <0>        -0.0740
     31 H1         10.1412    3.1742   -4.0544 H         1 <0>         0.1224
     32 H2         10.6416    0.7683   -4.2111 H         1 <0>         0.1243
     33 H3          9.2838   -0.8561   -2.9538 H         1 <0>         0.1253
     34 H4          6.9204    2.3307   -1.3890 H         1 <0>         0.1242
     35 H5          8.2774    3.9550   -2.6473 H         1 <0>         0.1238
     36 H6          6.1735    0.0275   -1.2128 H         1 <0>         0.0689
     37 H7          7.1595   -1.3025   -1.8662 H         1 <0>         0.0699
     38 H8          5.5918   -1.8970   -0.6247 H         1 <0>         0.1238
     39 H9          4.4397   -3.4813    0.8612 H         1 <0>         0.1253
     40 H10         5.3168   -3.9241    3.1148 H         1 <0>         0.1225
     41 H11         8.5348   -1.1823    2.3883 H         1 <0>         0.1221
     42 H12        11.0109   -4.9270    1.4219 H         1 <0>         0.1471
     43 H13        13.6533   -6.8552    4.1481 H         1 <0>         0.1435
@<TRIPOS>BOND
     1    1    6 ar
     2    1    2 ar
     3    1   31 1
     4    2    3 ar
     5    2   32 1
     6    3    4 ar
     7    3   33 1
     8    4    5 ar
     9    4    7 1
    10    5    6 ar
    11    5   34 1
    12    6   35 1
    13    7    8 1
    14    7   36 1
    15    7   37 1
    16    8    9 1
    17    9   14 ar
    18    9   10 ar
    19   10   11 ar
    20   10   38 1
    21   11   12 ar
    22   11   39 1
    23   12   13 ar
    24   12   40 1
    25   13   14 ar
    26   13   15 1
    27   14   41 1
    28   15   16 2
    29   15   17 am
    30   17   27 1
    31   17   18 1
    32   18   19 1
    33   18   20 2
    34   20   25 ar
    35   20   21 ar
    36   21   22 ar
    37   21   42 1
    38   22   23 ar
    39   22   30 1
    40   23   24 ar
    41   23   43 1
    42   24   25 ar
    43   24   29 1
    44   25   26 2
    45   26   27 1
    46   27   28 2
@<TRIPOS>MOLECULE
ZINC63448001
   53    57     0     0     0
SMALL
USER_CHARGES

@<TRIPOS>ATOM
      1 C1         -0.0184    1.5028    0.0103 C.3       1 <0>        -0.1061
      2 C2          0.0021   -0.0041    0.0020 C.ar      1 <0>        -0.1012
      3 C3          0.0057   -0.6887   -1.1989 C.ar      1 <0>        -0.1252
      4 C4          0.0245   -2.0709   -1.2065 C.ar      1 <0>        -0.0902
      5 C5          0.0400   -2.7685   -0.0132 C.ar      1 <0>        -0.0629
      6 C6          0.0373   -2.0839    1.1877 C.ar      1 <0>        -0.1191
      7 C7          0.0229   -0.7016    1.1953 C.ar      1 <0>        -0.1224
      8 C8          0.0595   -4.2753   -0.0215 C.3       1 <0>         0.0656
      9 H1          0.0585   -4.6373   -1.0496 H         1 <0>         0.1009
     10 C9          1.3061   -4.7777    0.6996 C.3       1 <0>        -0.2164
     11 H2          1.3784   -5.8541    0.5442 H         1 <0>         0.1161
     12 C10         1.1710   -4.5250    2.1759 C.2       1 <0>         0.4945
     13 N1          2.1790   -4.0342    2.8670 N.2       1 <0>        -0.6140
     14 C11         3.3104   -3.6380    2.2846 C.2       1 <0>         0.4322
     15 N2          3.4759   -3.6557    0.9674 N.2       1 <0>        -0.6822
     16 C12         2.5528   -4.1439    0.1684 C.2       1 <0>         0.5259
     17 O1          2.7285   -4.0847   -1.0334 O.2       1 <0>        -0.5044
     18 S1          4.6339   -3.0695    3.2992 S.3       1 <0>         0.0090
     19 C13         5.9416   -2.6430    2.1166 C.3       1 <0>        -0.0706
     20 C14         7.1483   -2.1357    2.8633 C.ar      1 <0>        -0.0567
     21 C15         7.2723   -0.7871    3.1416 C.ar      1 <0>        -0.0949
     22 C16         8.3788   -0.3210    3.8264 C.ar      1 <0>        -0.1066
     23 C17         9.3624   -1.2032    4.2330 C.ar      1 <0>        -0.1083
     24 C18         9.2389   -2.5526    3.9549 C.ar      1 <0>        -0.0345
     25 C19         8.1280   -3.0193    3.2746 C.ar      1 <0>        -0.0920
     26 Cl1        10.4737   -3.6609    4.4652 Cl        1 <0>        -0.0718
     27 N3          0.0019   -4.7407    2.7714 N.2       1 <0>        -0.6066
     28 C20        -1.1023   -4.9910    2.0946 C.2       1 <0>         0.2999
     29 C21        -1.1572   -4.8059    0.7080 C.2       1 <0>        -0.3822
     30 C22        -2.2725   -5.0914   -0.0007 C.2       1 <0>         0.3467
     31 O2         -2.2590   -4.9218   -1.3354 O.3       1 <0>        -0.6056
     32 C23        -3.5271   -5.5931    0.6578 C.3       1 <0>        -0.1346
     33 C24        -3.1708   -6.3446    1.9428 C.3       1 <0>        -0.1105
     34 C25        -2.3415   -5.4200    2.8428 C.3       1 <0>        -0.0833
     35 H3          1.0042    1.8801    0.0026 H         1 <0>         0.0640
     36 H4         -0.5455    1.8639   -0.8728 H         1 <0>         0.0609
     37 H5         -0.5286    1.8543    0.9071 H         1 <0>         0.0610
     38 H6         -0.0064   -0.1436   -2.1312 H         1 <0>         0.1150
     39 H7          0.0266   -2.6057   -2.1448 H         1 <0>         0.1194
     40 H8          0.0491   -2.6289    2.1200 H         1 <0>         0.1268
     41 H9          0.0245   -0.1667    2.1335 H         1 <0>         0.1136
     42 H10         6.2152   -3.5283    1.5425 H         1 <0>         0.1064
     43 H11         5.5809   -1.8683    1.4399 H         1 <0>         0.1092
     44 H12         6.5045   -0.0974    2.8235 H         1 <0>         0.1342
     45 H13         8.4751    0.7325    4.0435 H         1 <0>         0.1345
     46 H14        10.2273   -0.8388    4.7675 H         1 <0>         0.1329
     47 H15         8.0288   -4.0733    3.0610 H         1 <0>         0.1373
     48 H16        -4.1728   -4.7487    0.8988 H         1 <0>         0.0886
     49 H17        -4.0497   -6.2656   -0.0225 H         1 <0>         0.0831
     50 H18        -4.0844   -6.6361    2.4610 H         1 <0>         0.0761
     51 H19        -2.5883   -7.2326    1.6973 H         1 <0>         0.0682
     52 H20        -2.0543   -5.9529    3.7492 H         1 <0>         0.0889
     53 H21        -2.9314   -4.5419    3.1055 H         1 <0>         0.0914
@<TRIPOS>BOND
     1    1    2 1
     2    1   35 1
     3    1   36 1
     4    1   37 1
     5    2    7 ar
     6    2    3 ar
     7    3    4 ar
     8    3   38 1
     9    4    5 ar
    10    4   39 1
    11    5    6 ar
    12    5    8 1
    13    6    7 ar
    14    6   40 1
    15    7   41 1
    16    8    9 1
    17    8   29 1
    18    8   10 1
    19   10   11 1
    20   10   16 1
    21   10   12 1
    22   12   13 2
    23   12   27 1
    24   13   14 1
    25   14   15 2
    26   14   18 1
    27   15   16 1
    28   16   17 2
    29   18   19 1
    30   19   20 1
    31   19   42 1
    32   19   43 1
    33   20   25 ar
    34   20   21 ar
    35   21   22 ar
    36   21   44 1
    37   22   23 ar
    38   22   45 1
    39   23   24 ar
    40   23   46 1
    41   24   25 ar
    42   24   26 1
    43   25   47 1
    44   27   28 2
    45   28   34 1
    46   28   29 1
    47   29   30 2
    48   30   31 1
    49   30   32 1
    50   32   33 1
    51   32   48 1
    52   32   49 1
    53   33   34 1
    54   33   50 1
    55   33   51 1
    56   34   52 1
    57   34   53 1
@<TRIPOS>MOLECULE
ZINC02754668
   66    68     0     0     0
SMALL
USER_CHARGES
6-[(15-ethoxycarbonyl-13-thiabicyclo[10.3.0]pentadeca-14,16-dien-14-yl)carbamoyl]cyclohex-3-ene-1-carboxylic acid
@<TRIPOS>ATOM
      1 C1         -5.2648    6.2066    6.6467 C.3       1 <0>        -0.1530
      2 C2         -4.9810    4.7126    6.4782 C.3       1 <0>         0.0621
      3 O1         -3.6372    4.5308    5.9590 O.3       1 <0>        -0.3407
      4 C3         -3.2273    3.2627    5.7516 C.2       1 <0>         0.5439
      5 O2         -3.9734    2.3342    5.9983 O.2       1 <0>        -0.5092
      6 C4         -1.8839    3.0036    5.2295 C.2       1 <0>        -0.2389
      7 C5         -1.6259    2.9159    3.8117 C.2       1 <0>        -0.0517
      8 C6         -0.3587    2.6728    3.4319 C.2       1 <0>        -0.2231
      9 S1          0.5186    2.5600    4.9770 S.3       1 <0>         0.2203
     10 C7         -0.7929    2.8302    6.0749 C.2       1 <0>         0.1203
     11 N1         -0.7628    2.8652    7.4602 N.am      1 <0>        -0.5982
     12 C8          0.3998    2.6727    8.1141 C.2       1 <0>         0.5343
     13 O3          1.4198    2.4688    7.4905 O.2       1 <0>        -0.5028
     14 C9          0.4325    2.7108    9.6203 C.3       1 <0>        -0.0834
     15 H1         -0.5690    2.5352   10.0130 H         1 <0>         0.0943
     16 C10         1.3898    1.6366   10.1414 C.3       1 <0>        -0.0693
     17 C11         2.8083    2.0116    9.8263 C.2       1 <0>        -0.1607
     18 C12         3.1873    3.2053    9.4993 C.2       1 <0>        -0.1259
     19 C13         2.2597    4.3789    9.3797 C.3       1 <0>        -0.0724
     20 C14         0.9379    4.0805   10.0906 C.3       1 <0>        -0.1183
     21 H2          1.0978    4.0617   11.1687 H         1 <0>         0.0878
     22 C15        -0.0749    5.1409    9.7429 C.2       1 <0>         0.4667
     23 O4         -1.0980    4.8367    9.1767 O.co2     1 <0>        -0.6390
     24 C16         0.1853    2.5290    2.0338 C.3       1 <0>        -0.0260
     25 C17        -0.6504    1.5021    1.2668 C.3       1 <0>        -0.1532
     26 C18         0.1012    1.0711    0.0059 C.3       1 <0>        -0.1221
     27 C19        -0.6807    1.5178   -1.2311 C.3       1 <0>        -0.1231
     28 C20        -1.2717    2.9076   -0.9859 C.3       1 <0>        -0.1398
     29 C21        -2.7692    2.7817   -0.6985 C.3       1 <0>        -0.1311
     30 C22        -3.3817    4.1771   -0.5627 C.3       1 <0>        -0.1221
     31 C23        -3.4105    4.5795    0.9133 C.3       1 <0>        -0.1226
     32 C24        -2.2213    3.9450    1.6372 C.3       1 <0>        -0.1698
     33 C25        -2.7287    3.0880    2.7990 C.3       1 <0>        -0.0604
     34 H3         -6.2736    6.3431    7.0364 H         1 <0>         0.0762
     35 H4         -4.5450    6.6370    7.3429 H         1 <0>         0.0743
     36 H5         -5.1781    6.7041    5.6807 H         1 <0>         0.0633
     37 H6         -5.7008    4.2823    5.7819 H         1 <0>         0.0643
     38 H7         -5.0677    4.2151    7.4441 H         1 <0>         0.0698
     39 H8         -1.5786    3.0283    7.9591 H         1 <0>         0.4300
     40 H9          1.2725    1.5411   11.2208 H         1 <0>         0.0802
     41 H10         1.1546    0.6830    9.6687 H         1 <0>         0.0682
     42 H11         3.5597    1.2375    9.8759 H         1 <0>         0.0973
     43 H12         4.2364    3.3667    9.2998 H         1 <0>         0.0965
     44 H13         2.0659    4.5803    8.3262 H         1 <0>         0.0695
     45 H14         2.7243    5.2544    9.8333 H         1 <0>         0.0763
     46 H15         0.1368    3.4912    1.5240 H         1 <0>         0.0822
     47 H16         1.2215    2.1936    2.0796 H         1 <0>         0.0746
     48 H17        -1.6049    1.9474    0.9864 H         1 <0>         0.1018
     49 H18        -0.8273    0.6323    1.8995 H         1 <0>         0.0656
     50 H19         0.2051   -0.0139   -0.0021 H         1 <0>         0.0615
     51 H20         1.0894    1.5309   -0.0032 H         1 <0>         0.0645
     52 H21        -0.0113    1.5541   -2.0906 H         1 <0>         0.0599
     53 H22        -1.4859    0.8099   -1.4273 H         1 <0>         0.0621
     54 H23        -0.7753    3.3680   -0.1317 H         1 <0>         0.0846
     55 H24        -1.1223    3.5271   -1.8702 H         1 <0>         0.0611
     56 H25        -3.2531    2.2507   -1.5182 H         1 <0>         0.0597
     57 H26        -2.9158    2.2286    0.2293 H         1 <0>         0.0759
     58 H27        -2.7812    4.8937   -1.1230 H         1 <0>         0.0619
     59 H28        -4.3980    4.1679   -0.9567 H         1 <0>         0.0589
     60 H29        -3.3491    5.6646    0.9954 H         1 <0>         0.0608
     61 H30        -4.3391    4.2325    1.3665 H         1 <0>         0.0605
     62 H31        -1.6638    3.3189    0.9404 H         1 <0>         0.1212
     63 H32        -1.5696    4.7294    2.0219 H         1 <0>         0.0650
     64 H33        -3.5804    3.5799    3.2688 H         1 <0>         0.0627
     65 H34        -3.0339    2.1111    2.4241 H         1 <0>         0.0745
     66 O5          0.1596    6.4234   10.0623 O.co2     1 <0>        -0.7571
@<TRIPOS>BOND
     1    1    2 1
     2    1   34 1
     3    1   35 1
     4    1   36 1
     5    2    3 1
     6    2   37 1
     7    2   38 1
     8    3    4 1
     9    4    5 2
    10    4    6 1
    11    6   10 2
    12    6    7 1
    13    7   33 1
    14    7    8 2
    15    8    9 1
    16    8   24 1
    17    9   10 1
    18   10   11 1
    19   11   12 am
    20   11   39 1
    21   12   13 2
    22   12   14 1
    23   14   15 1
    24   14   20 1
    25   14   16 1
    26   16   17 1
    27   16   40 1
    28   16   41 1
    29   17   18 2
    30   17   42 1
    31   18   19 1
    32   18   43 1
    33   19   20 1
    34   19   44 1
    35   19   45 1
    36   20   21 1
    37   20   22 1
    38   22   23 2
    39   22   66 1
    40   24   25 1
    41   24   46 1
    42   24   47 1
    43   25   26 1
    44   25   48 1
    45   25   49 1
    46   26   27 1
    47   26   50 1
    48   26   51 1
    49   27   28 1
    50   27   52 1
    51   27   53 1
    52   28   29 1
    53   28   54 1
    54   28   55 1
    55   29   30 1
    56   29   56 1
    57   29   57 1
    58   30   31 1
    59   30   58 1
    60   30   59 1
    61   31   32 1
    62   31   60 1
    63   31   61 1
    64   32   33 1
    65   32   62 1
    66   32   63 1
    67   33   64 1
    68   33   65 1
@<TRIPOS>MOLECULE
ZINC17246413
   42    45     0     0     0
SMALL
USER_CHARGES
N-[3-[(4-bromophenyl)amino]quinoxalin-2-yl]-3-chloro-benzenesulfonamide
@<TRIPOS>ATOM
      1 C1          5.9030    1.8436   -0.0999 C.ar      1 <0>        -0.1419
      2 C2          5.9645    3.2300    0.0132 C.ar      1 <0>        -0.1149
      3 C3          4.8281    3.9756    0.1031 C.ar      1 <0>        -0.0983
      4 C4          3.5752    3.3422    0.0813 C.ar      1 <0>         0.1139
      5 C5          3.5127    1.9327   -0.0340 C.ar      1 <0>         0.0486
      6 C6          4.7048    1.1962   -0.1245 C.ar      1 <0>        -0.0761
      7 N1          2.3212    1.3175   -0.0497 N.ar      1 <0>        -0.4954
      8 C7          1.2161    2.0295    0.0315 C.ar      1 <0>         0.3733
      9 C8          1.2786    3.4388    0.1468 C.ar      1 <0>         0.4000
     10 N2          2.4424    4.0547    0.1688 N.ar      1 <0>        -0.5471
     11 N3          0.1073    4.1754    0.2376 N.2       1 <0>        -1.0347
     12 S1          0.1746    5.8245    0.3727 S.o2      1 <0>         2.6252
     13 O1         -1.1695    6.2835    0.4177 O.2       1 <0>        -0.9934
     14 O2          1.1119    6.1098    1.4019 O.2       1 <0>        -1.0037
     15 C9          0.8677    6.4420   -1.1250 C.ar      1 <0>        -0.6444
     16 C10         0.0428    6.7677   -2.1856 C.ar      1 <0>        -0.0260
     17 C11         0.5857    7.2530   -3.3605 C.ar      1 <0>        -0.1415
     18 C12         1.9540    7.4125   -3.4758 C.ar      1 <0>        -0.0775
     19 C13         2.7799    7.0864   -2.4151 C.ar      1 <0>        -0.0650
     20 C14         2.2353    6.6060   -1.2372 C.ar      1 <0>         0.0089
     21 Cl1         4.4982    7.2870   -2.5589 Cl        1 <0>        -0.0770
     22 N4         -0.0169    1.3935    0.0097 N.pl3     1 <0>        -0.6501
     23 C15        -0.0894    0.0173   -0.2235 C.ar      1 <0>         0.2075
     24 C16         0.7794   -0.5823   -1.1265 C.ar      1 <0>        -0.1191
     25 C17         0.7089   -1.9431   -1.3510 C.ar      1 <0>        -0.0683
     26 C18        -0.2332   -2.7074   -0.6856 C.ar      1 <0>        -0.1256
     27 C19        -1.1037   -2.1121    0.2102 C.ar      1 <0>        -0.0675
     28 C20        -1.0342   -0.7527    0.4430 C.ar      1 <0>        -0.1578
     29 Br1        -0.3309   -4.5695   -1.0007 Br        1 <0>        -0.0717
     30 H1          6.8178    1.2737   -0.1694 H         1 <0>         0.1164
     31 H2          6.9263    3.7208    0.0302 H         1 <0>         0.1166
     32 H3          4.8905    5.0502    0.1911 H         1 <0>         0.1231
     33 H4          4.6718    0.1203   -0.2126 H         1 <0>         0.1209
     34 H5         -1.0263    6.6433   -2.0960 H         1 <0>         0.1384
     35 H6         -0.0593    7.5080   -4.1884 H         1 <0>         0.1315
     36 H7          2.3780    7.7921   -4.3936 H         1 <0>         0.1299
     37 H8          2.8792    6.3554   -0.4072 H         1 <0>         0.1566
     38 H9         -0.9374    1.9724    0.1760 H         1 <0>         0.4608
     39 H10         1.5123    0.0145   -1.6492 H         1 <0>         0.1374
     40 H11         1.3873   -2.4105   -2.0493 H         1 <0>         0.1272
     41 H12        -1.8380   -2.7113    0.7281 H         1 <0>         0.1285
     42 H13        -1.7134   -0.2887    1.1428 H         1 <0>         0.1317
@<TRIPOS>BOND
     1    1    6 ar
     2    1    2 ar
     3    1   30 1
     4    2    3 ar
     5    2   31 1
     6    3    4 ar
     7    3   32 1
     8    4   10 ar
     9    4    5 ar
    10    5    6 ar
    11    5    7 ar
    12    6   33 1
    13    7    8 ar
    14    8    9 ar
    15    8   22 1
    16    9   10 ar
    17    9   11 1
    18   11   12 1
    19   12   13 2
    20   12   14 2
    21   12   15 1
    22   15   20 ar
    23   15   16 ar
    24   16   17 ar
    25   16   34 1
    26   17   18 ar
    27   17   35 1
    28   18   19 ar
    29   18   36 1
    30   19   20 ar
    31   19   21 1
    32   20   37 1
    33   22   23 1
    34   22   38 1
    35   23   28 ar
    36   23   24 ar
    37   24   25 ar
    38   24   39 1
    39   25   26 ar
    40   25   40 1
    41   26   27 ar
    42   26   29 1
    43   27   28 ar
    44   27   41 1
    45   28   42 1
@<TRIPOS>MOLECULE
ZINC17005554
   58    63     0     0     0
SMALL
USER_CHARGES
(2R)-2-[(5,6-diphenyl-1H-imidazo[2,1-e][1,2,4]triazol-2-yl)amino]-1,2-diphenyl-ethanone
@<TRIPOS>ATOM
      1 C1         -2.7563    2.6485   10.5716 C.ar      1 <0>        -0.1364
      2 C2         -1.8060    3.5079   10.0499 C.ar      1 <0>        -0.1246
      3 C3         -1.5944    3.5620    8.6875 C.ar      1 <0>        -0.1004
      4 C4         -2.3410    2.7478    7.8359 C.ar      1 <0>         0.0319
      5 C5         -3.3013    1.8872    8.3675 C.ar      1 <0>        -0.1064
      6 C6         -3.5000    1.8384    9.7321 C.ar      1 <0>        -0.1222
      7 C7         -2.1191    2.8013    6.3723 C.2       1 <0>         0.0732
      8 C8         -2.1995    1.7340    5.4970 C.2       1 <0>        -0.0331
      9 N1         -1.9206    2.2370    4.2445 N.pl3     1 <0>        -0.3043
     10 C9         -1.6806    3.5775    4.3837 C.2       1 <0>         0.3592
     11 N2         -1.8031    3.8972    5.6583 N.2       1 <0>        -0.5189
     12 N3         -1.4002    4.0769    3.1534 N.2       1 <0>        -0.6081
     13 C10        -1.4615    3.1192    2.2562 C.2       1 <0>         0.4838
     14 N4         -1.7806    1.9421    2.8828 N.2       1 <0>        -0.4492
     15 N5         -1.2373    3.2708    0.9135 N.pl3     1 <0>        -0.7003
     16 C11        -1.3319    2.1138    0.0199 C.3       1 <0>         0.1776
     17 H1         -2.1311    1.4587    0.3969 H         1 <0>         0.1145
     18 C12        -0.0167    1.3781    0.0096 C.ar      1 <0>        -0.0840
     19 C13         1.1709    2.0855    0.0021 C.ar      1 <0>        -0.0905
     20 C14         2.3773    1.4107   -0.0145 C.ar      1 <0>        -0.1227
     21 C15         2.3960    0.0285   -0.0212 C.ar      1 <0>        -0.1200
     22 C16         1.2084   -0.6789   -0.0132 C.ar      1 <0>        -0.1217
     23 C17         0.0021   -0.0041    0.0020 C.ar      1 <0>        -0.1001
     24 C18        -1.6564    2.5820   -1.3753 C.2       1 <0>         0.4048
     25 O1         -1.4439    3.7325   -1.6936 O.2       1 <0>        -0.4406
     26 C19        -2.2314    1.6427   -2.3515 C.ar      1 <0>        -0.1606
     27 C20        -2.4727    0.3134   -1.9901 C.ar      1 <0>        -0.0708
     28 C21        -3.0166   -0.5592   -2.9088 C.ar      1 <0>        -0.1318
     29 C22        -3.3133   -0.1254   -4.1892 C.ar      1 <0>        -0.0893
     30 C23        -3.0725    1.1872   -4.5562 C.ar      1 <0>        -0.1351
     31 C24        -2.5340    2.0733   -3.6473 C.ar      1 <0>        -0.0601
     32 C25        -2.5197    0.3347    5.8364 C.ar      1 <0>         0.0368
     33 C26        -3.4298   -0.3859    5.0582 C.ar      1 <0>        -0.1112
     34 C27        -3.7195   -1.6958    5.3779 C.ar      1 <0>        -0.1202
     35 C28        -3.1206   -2.2930    6.4733 C.ar      1 <0>        -0.1416
     36 C29        -2.2231   -1.5837    7.2521 C.ar      1 <0>        -0.1196
     37 C30        -1.9189   -0.2751    6.9410 C.ar      1 <0>        -0.1083
     38 H2         -2.9180    2.6095   11.6388 H         1 <0>         0.1131
     39 H3         -1.2288    4.1381   10.7103 H         1 <0>         0.1160
     40 H4         -0.8520    4.2330    8.2814 H         1 <0>         0.1244
     41 H5         -3.8853    1.2575    7.7128 H         1 <0>         0.1203
     42 H6         -4.2404    1.1695   10.1453 H         1 <0>         0.1158
     43 H7         -0.9862    4.2613    0.5062 H         1 <0>         0.4323
     44 H8          1.1563    3.1654    0.0081 H         1 <0>         0.1217
     45 H9          3.3051    1.9634   -0.0205 H         1 <0>         0.1194
     46 H10         3.3385   -0.4987   -0.0324 H         1 <0>         0.1181
     47 H11         1.2231   -1.7588   -0.0184 H         1 <0>         0.1204
     48 H12        -0.9258   -0.5567    0.0083 H         1 <0>         0.1214
     49 H13        -2.2375   -0.0277   -0.9927 H         1 <0>         0.1355
     50 H14        -3.2070   -1.5851   -2.6301 H         1 <0>         0.1298
     51 H15        -3.7346   -0.8148   -4.9058 H         1 <0>         0.1260
     52 H16        -3.3067    1.5182   -5.5572 H         1 <0>         0.1279
     53 H17        -2.3460    3.0971   -3.9353 H         1 <0>         0.1336
     54 H18        -3.9013    0.0803    4.2058 H         1 <0>         0.1151
     55 H19        -4.4192   -2.2554    4.7749 H         1 <0>         0.1134
     56 H20        -3.3545   -3.3178    6.7214 H         1 <0>         0.1123
     57 H21        -1.7595   -2.0562    8.1055 H         1 <0>         0.1155
     58 H22        -1.2177    0.2771    7.5492 H         1 <0>         0.1185
@<TRIPOS>BOND
     1    1    6 ar
     2    1    2 ar
     3    1   38 1
     4    2    3 ar
     5    2   39 1
     6    3    4 ar
     7    3   40 1
     8    4    5 ar
     9    4    7 1
    10    5    6 ar
    11    5   41 1
    12    6   42 1
    13    7   11 1
    14    7    8 2
    15    8    9 1
    16    8   32 1
    17    9   14 1
    18    9   10 1
    19   10   11 2
    20   10   12 1
    21   12   13 2
    22   13   14 1
    23   13   15 1
    24   15   16 1
    25   15   43 1
    26   16   17 1
    27   16   18 1
    28   16   24 1
    29   18   23 ar
    30   18   19 ar
    31   19   20 ar
    32   19   44 1
    33   20   21 ar
    34   20   45 1
    35   21   22 ar
    36   21   46 1
    37   22   23 ar
    38   22   47 1
    39   23   48 1
    40   24   25 2
    41   24   26 1
    42   26   31 ar
    43   26   27 ar
    44   27   28 ar
    45   27   49 1
    46   28   29 ar
    47   28   50 1
    48   29   30 ar
    49   29   51 1
    50   30   31 ar
    51   30   52 1
    52   31   53 1
    53   32   37 ar
    54   32   33 ar
    55   33   34 ar
    56   33   54 1
    57   34   35 ar
    58   34   55 1
    59   35   36 ar
    60   35   56 1
    61   36   37 ar
    62   36   57 1
    63   37   58 1
@<TRIPOS>MOLECULE
ZINC03035751
   44    47     0     0     0
SMALL
USER_CHARGES

@<TRIPOS>ATOM
      1 C1         -0.0164    1.3554    0.0095 C.ar      1 <0>        -0.1129
      2 C2          1.1548    2.1004    0.0023 C.ar      1 <0>        -0.0886
      3 C3          2.3732    1.4473   -0.0128 C.ar      1 <0>        -0.0700
      4 C4          2.4030    0.0743   -0.0204 C.ar      1 <0>        -0.1380
      5 C5          1.2272   -0.7128   -0.0134 C.ar      1 <0>         0.0736
      6 C6          0.0021   -0.0041    0.0020 C.ar      1 <0>        -0.0554
      7 N1          1.4171   -2.0468   -0.0230 N.2       1 <0>        -0.4751
      8 C7          2.6149   -2.5904   -0.0379 C.2       1 <0>         0.1988
      9 S1          3.6831   -1.1573   -0.0401 S.3       1 <0>        -0.0054
     10 C8          2.9833   -4.0213   -0.0499 C.ar      1 <0>        -0.0395
     11 C9          4.3243   -4.3971   -0.0595 C.ar      1 <0>        -0.0541
     12 C10         4.6637   -5.7499   -0.0708 C.ar      1 <0>         0.0691
     13 C11         3.6574   -6.7225   -0.0724 C.ar      1 <0>        -0.1079
     14 C12         2.3313   -6.3478   -0.0628 C.ar      1 <0>        -0.1311
     15 C13         1.9844   -5.0044   -0.0457 C.ar      1 <0>         0.1589
     16 O1          0.6762   -4.6419   -0.0307 O.3       1 <0>        -0.4738
     17 N2          5.9776   -6.1252   -0.0807 N.2       1 <0>        -0.4648
     18 C14         6.3909   -7.0806    0.7115 C.2       1 <0>         0.1828
     19 C15         7.7501   -7.4688    0.7012 C.2       1 <0>        -0.1118
     20 C16         8.1770   -8.4558    1.5195 C.2       1 <0>        -0.0648
     21 C17         9.5913   -8.8598    1.5089 C.ar      1 <0>        -0.0467
     22 C18        10.4987   -8.2206    0.6569 C.ar      1 <0>        -0.0550
     23 C19        11.8223   -8.6047    0.6524 C.ar      1 <0>        -0.0864
     24 C20        12.2550   -9.6212    1.4883 C.ar      1 <0>        -0.0453
     25 C21        11.3627  -10.2588    2.3340 C.ar      1 <0>        -0.0273
     26 C22        10.0370   -9.8811    2.3545 C.ar      1 <0>        -0.0337
     27 N3         11.8350  -11.3441    3.2230 N.pl3     1 <0>         0.0264
     28 O2         11.0573  -11.9017    3.9618 O.2       1 <0>        -0.1574
     29 O3         12.9983  -11.6728    3.2102 O.3       1 <0>        -0.1249
     30 Br1        14.0731  -10.1410    1.4741 Br        1 <0>         0.0246
     31 H1         -0.9665    1.8687    0.0259 H         1 <0>         0.1364
     32 H2          1.1146    3.1797    0.0081 H         1 <0>         0.1412
     33 H3          3.2937    2.0121   -0.0189 H         1 <0>         0.1357
     34 H4         -0.9298   -0.5500    0.0083 H         1 <0>         0.1349
     35 H5          5.0983   -3.6439   -0.0586 H         1 <0>         0.1401
     36 H6          3.9210   -7.7698   -0.0815 H         1 <0>         0.1359
     37 H7          1.5591   -7.1028   -0.0641 H         1 <0>         0.1442
     38 H8          0.2885   -4.5317   -0.9097 H         1 <0>         0.3964
     39 H9          5.6937   -7.5728    1.3733 H         1 <0>         0.1101
     40 H10         8.4473   -6.9767    0.0394 H         1 <0>         0.1361
     41 H11         7.4798   -8.9480    2.1814 H         1 <0>         0.1412
     42 H12        10.1626   -7.4285    0.0042 H         1 <0>         0.1574
     43 H13        12.5238   -8.1122   -0.0046 H         1 <0>         0.1602
     44 H14         9.3432  -10.3760    3.0180 H         1 <0>         0.1661
@<TRIPOS>BOND
     1    1    6 ar
     2    1    2 ar
     3    1   31 1
     4    2    3 ar
     5    2   32 1
     6    3    4 ar
     7    3   33 1
     8    4    9 1
     9    4    5 ar
    10    5    6 ar
    11    5    7 1
    12    6   34 1
    13    7    8 2
    14    8    9 1
    15    8   10 1
    16   10   15 ar
    17   10   11 ar
    18   11   12 ar
    19   11   35 1
    20   12   13 ar
    21   12   17 1
    22   13   14 ar
    23   13   36 1
    24   14   15 ar
    25   14   37 1
    26   15   16 1
    27   16   38 1
    28   17   18 2
    29   18   19 1
    30   18   39 1
    31   19   20 2
    32   19   40 1
    33   20   21 1
    34   20   41 1
    35   21   26 ar
    36   21   22 ar
    37   22   23 ar
    38   22   42 1
    39   23   24 ar
    40   23   43 1
    41   24   25 ar
    42   24   30 1
    43   25   26 ar
    44   25   27 1
    45   26   44 1
    46   27   28 2
    47   27   29 1
@<TRIPOS>MOLECULE
ZINC02429719
   51    54     0     0     0
SMALL
USER_CHARGES

@<TRIPOS>ATOM
      1 C1         -1.0153    2.3184    1.0973 C.3       1 <0>        -0.1100
      2 C2         -0.7903    0.8475    0.8590 C.ar      1 <0>        -0.1233
      3 C3         -0.7118    0.3605   -0.4326 C.ar      1 <0>        -0.0776
      4 C4         -0.5054   -0.9886   -0.6511 C.ar      1 <0>        -0.1464
      5 C5         -0.3770   -1.8510    0.4219 C.ar      1 <0>         0.0176
      6 C6         -0.4546   -1.3640    1.7130 C.ar      1 <0>        -0.6303
      7 C7         -0.6567   -0.0139    1.9317 C.ar      1 <0>        -0.0265
      8 S1         -0.2915   -2.4632    3.0805 S.o2      1 <0>         2.6444
      9 O1          0.8659   -3.2498    2.8335 O.2       1 <0>        -1.0082
     10 O2         -0.4417   -1.6764    4.2542 O.2       1 <0>        -1.0144
     11 N1         -1.5847   -3.4967    3.0348 N.2       1 <0>        -1.0699
     12 C8         -1.7195   -4.4816    4.0015 C.ar      1 <0>         0.4194
     13 C9         -2.8236   -5.3666    3.9550 C.ar      1 <0>         0.3684
     14 N2         -2.9634   -6.3064    4.8670 N.ar      1 <0>        -0.4921
     15 C10        -2.0539   -6.4260    5.8454 C.ar      1 <0>         0.0394
     16 C11        -2.1806   -7.4202    6.8289 C.ar      1 <0>        -0.0720
     17 C12        -1.2436   -7.5218    7.8123 C.ar      1 <0>        -0.1472
     18 C13        -0.1576   -6.6516    7.8578 C.ar      1 <0>        -0.1124
     19 C14        -0.0035   -5.6757    6.9200 C.ar      1 <0>        -0.1045
     20 C15        -0.9500   -5.5416    5.8917 C.ar      1 <0>         0.1224
     21 N3         -0.8170   -4.5916    4.9539 N.ar      1 <0>        -0.5651
     22 N4         -3.7644   -5.2428    2.9428 N.pl3     1 <0>        -0.6355
     23 C16        -4.9163   -6.0337    2.9589 C.ar      1 <0>         0.1865
     24 C17        -5.5424   -6.3273    4.1640 C.ar      1 <0>        -0.0882
     25 C18        -6.6805   -7.1092    4.1763 C.ar      1 <0>        -0.0993
     26 C19        -7.1971   -7.5999    2.9908 C.ar      1 <0>        -0.1079
     27 C20        -6.5765   -7.3096    1.7899 C.ar      1 <0>        -0.1634
     28 C21        -5.4411   -6.5234    1.7697 C.ar      1 <0>        -0.1133
     29 C22        -7.1432   -7.8465    0.5008 C.3       1 <0>         0.5101
     30 F1         -8.2877   -8.6032    0.7739 F         1 <0>        -0.1799
     31 F2         -7.4787   -6.7805   -0.3409 F         1 <0>        -0.1788
     32 F3         -6.1891   -8.6542   -0.1274 F         1 <0>        -0.1779
     33 C23        -0.1530   -3.3221    0.1836 C.3       1 <0>        -0.1441
     34 H1         -0.0537    2.8287    1.1533 H         1 <0>         0.0676
     35 H2         -1.6000    2.7341    0.2767 H         1 <0>         0.0642
     36 H3         -1.5549    2.4563    2.0343 H         1 <0>         0.0673
     37 H4         -0.8120    1.0342   -1.2707 H         1 <0>         0.1225
     38 H5         -0.4448   -1.3691   -1.6600 H         1 <0>         0.1254
     39 H6         -0.7136    0.3672    2.9406 H         1 <0>         0.1368
     40 H7         -3.0182   -8.1017    6.8059 H         1 <0>         0.1214
     41 H8         -1.3446   -8.2875    8.5672 H         1 <0>         0.1168
     42 H9          0.5723   -6.7515    8.6475 H         1 <0>         0.1174
     43 H10         0.8439   -5.0078    6.9671 H         1 <0>         0.1242
     44 H11        -3.6225   -4.6072    2.2239 H         1 <0>         0.4327
     45 H12        -5.1393   -5.9448    5.0900 H         1 <0>         0.1401
     46 H13        -7.1675   -7.3381    5.1127 H         1 <0>         0.1319
     47 H14        -8.0872   -8.2115    3.0033 H         1 <0>         0.1318
     48 H15        -4.9596   -6.2930    0.8309 H         1 <0>         0.1327
     49 H16         0.9170   -3.5224    0.1286 H         1 <0>         0.0841
     50 H17        -0.5879   -3.8934    1.0037 H         1 <0>         0.0931
     51 H18        -0.6260   -3.6145   -0.7539 H         1 <0>         0.0701
@<TRIPOS>BOND
     1    1    2 1
     2    1   34 1
     3    1   35 1
     4    1   36 1
     5    2    7 ar
     6    2    3 ar
     7    3    4 ar
     8    3   37 1
     9    4    5 ar
    10    4   38 1
    11    5    6 ar
    12    5   33 1
    13    6    7 ar
    14    6    8 1
    15    7   39 1
    16    8    9 2
    17    8   10 2
    18    8   11 1
    19   11   12 1
    20   12   21 ar
    21   12   13 ar
    22   13   14 ar
    23   13   22 1
    24   14   15 ar
    25   15   20 ar
    26   15   16 ar
    27   16   17 ar
    28   16   40 1
    29   17   18 ar
    30   17   41 1
    31   18   19 ar
    32   18   42 1
    33   19   20 ar
    34   19   43 1
    35   20   21 ar
    36   22   23 1
    37   22   44 1
    38   23   28 ar
    39   23   24 ar
    40   24   25 ar
    41   24   45 1
    42   25   26 ar
    43   25   46 1
    44   26   27 ar
    45   26   47 1
    46   27   28 ar
    47   27   29 1
    48   28   48 1
    49   29   30 1
    50   29   31 1
    51   29   32 1
    52   33   49 1
    53   33   50 1
    54   33   51 1
@<TRIPOS>MOLECULE
ZINC39765179
   53    57     0     0     0
SMALL
USER_CHARGES

@<TRIPOS>ATOM
      1 C1         -0.0184    1.5028    0.0103 C.3       1 <0>        -0.1144
      2 C2          0.0021   -0.0041    0.0020 C.ar      1 <0>        -0.0849
      3 C3          0.0057   -0.6887   -1.1989 C.ar      1 <0>        -0.1212
      4 C4          0.0245   -2.0709   -1.2065 C.ar      1 <0>        -0.0948
      5 C5          0.0400   -2.7685   -0.0132 C.ar      1 <0>        -0.0767
      6 C6          0.0373   -2.0839    1.1877 C.ar      1 <0>        -0.0959
      7 C7          0.0229   -0.7016    1.1953 C.ar      1 <0>        -0.1218
      8 C8          0.0595   -4.2753   -0.0215 C.3       1 <0>        -0.0673
      9 S1          1.7773   -4.8578   -0.0342 S.3       1 <0>         0.0080
     10 C9          1.6320   -6.6138   -0.0429 C.2       1 <0>         0.4311
     11 N1          0.4198   -7.1553   -0.0446 N.2       1 <0>        -0.6818
     12 C10         0.2442   -8.4656    0.0409 C.2       1 <0>         0.5245
     13 O1         -0.8810   -8.9234   -0.0140 O.2       1 <0>        -0.4992
     14 C11         1.4082   -9.3911    0.2035 C.3       1 <0>        -0.2182
     15 H1          1.3907   -9.7833    1.2203 H         1 <0>         0.1207
     16 C12         1.3394  -10.5703   -0.7612 C.3       1 <0>         0.0648
     17 H2          0.5037  -11.2167   -0.4931 H         1 <0>         0.1070
     18 C13         2.6381  -11.3433   -0.6557 C.2       1 <0>        -0.3874
     19 C14         3.8264  -10.6572   -0.3895 C.2       1 <0>         0.3032
     20 C15         5.1346  -11.4096   -0.3218 C.3       1 <0>        -0.0841
     21 C16         4.8716  -12.8271    0.1938 C.3       1 <0>        -0.1105
     22 C17         3.8695  -13.5117   -0.7399 C.3       1 <0>        -0.1352
     23 C18         2.6156  -12.6852   -0.8211 C.2       1 <0>         0.3483
     24 O2          1.4418  -13.2965   -1.0639 O.3       1 <0>        -0.6034
     25 N2          3.8289   -9.3567   -0.1664 N.2       1 <0>        -0.6066
     26 C19         2.7103   -8.6659    0.0045 C.2       1 <0>         0.4911
     27 N3          2.7428   -7.3500   -0.0531 N.2       1 <0>        -0.6122
     28 C20         1.1602  -10.0653   -2.1697 C.ar      1 <0>        -0.0425
     29 C21         2.1137   -9.2380   -2.7337 C.ar      1 <0>        -0.1074
     30 C22         1.9503   -8.7738   -4.0252 C.ar      1 <0>        -0.0990
     31 C23         0.8323   -9.1372   -4.7546 C.ar      1 <0>        -0.0370
     32 C24        -0.1222   -9.9659   -4.1900 C.ar      1 <0>        -0.0286
     33 C25         0.0455  -10.4339   -2.8989 C.ar      1 <0>        -0.0735
     34 Cl1        -1.5260  -10.4224   -5.1037 Cl        1 <0>        -0.0601
     35 Cl2         0.6263   -8.5540   -6.3766 Cl        1 <0>        -0.0639
     36 H3          1.0042    1.8801    0.0026 H         1 <0>         0.0700
     37 H4         -0.5455    1.8639   -0.8728 H         1 <0>         0.0652
     38 H5         -0.5286    1.8543    0.9071 H         1 <0>         0.0650
     39 H6         -0.0064   -0.1436   -2.1312 H         1 <0>         0.1227
     40 H7          0.0266   -2.6057   -2.1448 H         1 <0>         0.1265
     41 H8          0.0491   -2.6289    2.1200 H         1 <0>         0.1258
     42 H9          0.0245   -0.1667    2.1335 H         1 <0>         0.1224
     43 H10        -0.4447   -4.6501    0.8693 H         1 <0>         0.1030
     44 H11        -0.4546   -4.6404   -0.9106 H         1 <0>         0.1047
     45 H12         5.5779  -11.4599   -1.3163 H         1 <0>         0.0916
     46 H13         5.8158  -10.8957    0.3564 H         1 <0>         0.0903
     47 H14         5.8044  -13.3908    0.2054 H         1 <0>         0.0768
     48 H15         4.4584  -12.7789    1.2013 H         1 <0>         0.0688
     49 H16         4.3062  -13.6079   -1.7340 H         1 <0>         0.0895
     50 H17         3.6281  -14.5011   -0.3515 H         1 <0>         0.0839
     51 H18         2.9866   -8.9541   -2.1646 H         1 <0>         0.1431
     52 H19         2.6952   -8.1271   -4.4649 H         1 <0>         0.1377
     53 H20        -0.6967  -11.0836   -2.4593 H         1 <0>         0.1417
@<TRIPOS>BOND
     1    1    2 1
     2    1   36 1
     3    1   37 1
     4    1   38 1
     5    2    7 ar
     6    2    3 ar
     7    3    4 ar
     8    3   39 1
     9    4    5 ar
    10    4   40 1
    11    5    6 ar
    12    5    8 1
    13    6    7 ar
    14    6   41 1
    15    7   42 1
    16    8    9 1
    17    8   43 1
    18    8   44 1
    19    9   10 1
    20   10   27 1
    21   10   11 2
    22   11   12 1
    23   12   13 2
    24   12   14 1
    25   14   15 1
    26   14   26 1
    27   14   16 1
    28   16   17 1
    29   16   18 1
    30   16   28 1
    31   18   23 2
    32   18   19 1
    33   19   20 1
    34   19   25 2
    35   20   21 1
    36   20   45 1
    37   20   46 1
    38   21   22 1
    39   21   47 1
    40   21   48 1
    41   22   23 1
    42   22   49 1
    43   22   50 1
    44   23   24 1
    45   25   26 1
    46   26   27 2
    47   28   33 ar
    48   28   29 ar
    49   29   30 ar
    50   29   51 1
    51   30   31 ar
    52   30   52 1
    53   31   32 ar
    54   31   35 1
    55   32   33 ar
    56   32   34 1
    57   33   53 1
@<TRIPOS>MOLECULE
ZINC06668849
   48    51     0     0     0
SMALL
USER_CHARGES
2-(5-phenacyl-3-phenyl-4,5-dihydropyrazol-1-yl)benzoic acid
@<TRIPOS>ATOM
      1 C1          0.1413    4.0709    5.9117 C.ar      1 <0>        -0.1284
      2 C2          1.3039    4.2309    5.1786 C.ar      1 <0>        -0.1191
      3 C3          1.4126    3.6742    3.9214 C.ar      1 <0>        -0.0971
      4 C4          0.3452    2.9473    3.3884 C.ar      1 <0>         0.0137
      5 C5         -0.8277    2.7948    4.1319 C.ar      1 <0>        -0.1090
      6 C6         -0.9200    3.3522    5.3902 C.ar      1 <0>        -0.1205
      7 C7          0.4537    2.3491    2.0451 C.2       1 <0>         0.0365
      8 N1          1.4834    2.4330    1.2746 N.2       1 <0>        -0.1652
      9 N2          1.3345    1.7802    0.0527 N.pl3     1 <0>        -0.4532
     10 C8         -0.0017    1.1659    0.0010 C.3       1 <0>         0.1415
     11 H1          0.0774    0.0833   -0.0973 H         1 <0>         0.0908
     12 C9         -0.6260    1.5432    1.3590 C.3       1 <0>        -0.1034
     13 C10        -0.8191    1.7514   -1.1523 C.3       1 <0>        -0.1646
     14 C11        -0.2235    1.3105   -2.4646 C.2       1 <0>         0.3786
     15 O1          0.6819    0.5042   -2.4790 O.2       1 <0>        -0.4093
     16 C12        -0.7409    1.8587   -3.7286 C.ar      1 <0>        -0.1540
     17 C13        -1.7890    2.7846   -3.7164 C.ar      1 <0>        -0.0789
     18 C14        -2.2641    3.2983   -4.9046 C.ar      1 <0>        -0.1344
     19 C15        -1.7144    2.8909   -6.1077 C.ar      1 <0>        -0.0967
     20 C16        -0.6811    1.9703   -6.1284 C.ar      1 <0>        -0.1321
     21 C17        -0.1909    1.4521   -4.9484 C.ar      1 <0>        -0.0599
     22 C18         2.2898    1.7198   -0.9515 C.ar      1 <0>         0.2292
     23 C19         2.2806    2.6529   -1.9821 C.ar      1 <0>        -0.1360
     24 C20         3.2348    2.5936   -2.9763 C.ar      1 <0>        -0.1182
     25 C21         4.2021    1.6004   -2.9634 C.ar      1 <0>        -0.1350
     26 C22         4.2246    0.6632   -1.9543 C.ar      1 <0>        -0.0741
     27 C23         3.2682    0.7118   -0.9360 C.ar      1 <0>        -0.0968
     28 C24         3.2866   -0.2868    0.1465 C.2       1 <0>         0.4907
     29 O2          2.4535   -0.2405    1.0301 O.co2     1 <0>        -0.6133
     30 H2          0.0617    4.5093    6.8955 H         1 <0>         0.1173
     31 H3          2.1282    4.7934    5.5918 H         1 <0>         0.1205
     32 H4          2.3205    3.8002    3.3502 H         1 <0>         0.1286
     33 H5         -1.6585    2.2379    3.7243 H         1 <0>         0.1234
     34 H6         -1.8244    3.2314    5.9680 H         1 <0>         0.1204
     35 H7         -1.5208    2.1485    1.2135 H         1 <0>         0.0845
     36 H8         -0.8587    0.6474    1.9348 H         1 <0>         0.0902
     37 H9         -1.7633    1.4281   -1.0894 H         1 <0>         0.0969
     38 H10        -0.8030    2.8396   -1.0933 H         1 <0>         0.0965
     39 H11        -2.2219    3.1000   -2.7786 H         1 <0>         0.1291
     40 H12        -3.0699    4.0172   -4.8966 H         1 <0>         0.1257
     41 H13        -2.0936    3.2937   -7.0352 H         1 <0>         0.1235
     42 H14        -0.2574    1.6574   -7.0712 H         1 <0>         0.1263
     43 H15         0.6159    0.7344   -4.9661 H         1 <0>         0.1339
     44 H16         1.5280    3.4272   -2.0021 H         1 <0>         0.1078
     45 H17         3.2260    3.3234   -3.7724 H         1 <0>         0.1127
     46 H18         4.9418    1.5611   -3.7493 H         1 <0>         0.1149
     47 H19         4.9805   -0.1082   -1.9496 H         1 <0>         0.1295
     48 O3          4.2273   -1.2518    0.1571 O.co2     1 <0>        -0.7637
@<TRIPOS>BOND
     1    1    6 ar
     2    1    2 ar
     3    1   30 1
     4    2    3 ar
     5    2   31 1
     6    3    4 ar
     7    3   32 1
     8    4    5 ar
     9    4    7 1
    10    5    6 ar
    11    5   33 1
    12    6   34 1
    13    7   12 1
    14    7    8 2
    15    8    9 1
    16    9   10 1
    17    9   22 1
    18   10   11 1
    19   10   12 1
    20   10   13 1
    21   12   35 1
    22   12   36 1
    23   13   14 1
    24   13   37 1
    25   13   38 1
    26   14   15 2
    27   14   16 1
    28   16   21 ar
    29   16   17 ar
    30   17   18 ar
    31   17   39 1
    32   18   19 ar
    33   18   40 1
    34   19   20 ar
    35   19   41 1
    36   20   21 ar
    37   20   42 1
    38   21   43 1
    39   22   27 ar
    40   22   23 ar
    41   23   24 ar
    42   23   44 1
    43   24   25 ar
    44   24   45 1
    45   25   26 ar
    46   25   46 1
    47   26   27 ar
    48   26   47 1
    49   27   28 1
    50   28   29 2
    51   28   48 1
@<TRIPOS>MOLECULE
ZINC06694711
   45    48     0     0     0
SMALL
USER_CHARGES
(2S)-2-[(4,5-diphenyl-1H-imidazol-2-yl)sulfanyl]-2-phenyl-acetic acid
@<TRIPOS>ATOM
      1 C1          2.7480   -4.2541   -1.1933 C.ar      1 <0>        -0.1213
      2 C2          1.8102   -4.0891   -0.1892 C.ar      1 <0>        -0.1177
      3 C3          1.3401   -2.8298    0.1196 C.ar      1 <0>        -0.1134
      4 C4          1.8130   -1.7193   -0.5841 C.ar      1 <0>        -0.0010
      5 C5          2.7556   -1.8942   -1.6006 C.ar      1 <0>        -0.0895
      6 C6          3.2209   -3.1588   -1.8946 C.ar      1 <0>        -0.1160
      7 C7          1.3149   -0.3688   -0.2595 C.2       1 <0>         0.0119
      8 C8          2.0733    0.7691   -0.0665 C.2       1 <0>         0.0734
      9 N1          1.2288    1.7823    0.2092 N.2       1 <0>        -0.4246
     10 C9         -0.0066    1.3406    0.1985 C.2       1 <0>         0.2102
     11 N2         -0.0040    0.0091   -0.0881 N.pl3     1 <0>        -0.5535
     12 H1         -0.8058   -0.5841   -0.1609 H         1 <0>         0.4246
     13 S1         -1.4421    2.3169    0.4999 S.3       1 <0>        -0.0104
     14 C10        -0.6705    3.9269    0.7973 C.3       1 <0>        -0.0657
     15 H2         -0.0359    4.1877   -0.0497 H         1 <0>         0.1004
     16 C11        -1.7414    4.9741    0.9638 C.ar      1 <0>        -0.0502
     17 C12        -2.6745    4.8536    1.9765 C.ar      1 <0>        -0.0712
     18 C13        -3.6541    5.8164    2.1319 C.ar      1 <0>        -0.1308
     19 C14        -3.7064    6.8948    1.2687 C.ar      1 <0>        -0.1268
     20 C15        -2.7762    7.0129    0.2530 C.ar      1 <0>        -0.1329
     21 C16        -1.7940    6.0523    0.1002 C.ar      1 <0>        -0.1098
     22 C17         0.1654    3.8598    2.0494 C.2       1 <0>         0.4796
     23 O1          1.3706    3.9018    1.9742 O.co2     1 <0>        -0.5944
     24 C18         3.5495    0.8594   -0.1474 C.ar      1 <0>         0.0095
     25 C19         4.3443   -0.1305    0.4304 C.ar      1 <0>        -0.0985
     26 C20         5.7189   -0.0435    0.3471 C.ar      1 <0>        -0.1236
     27 C21         6.3091    1.0288   -0.2978 C.ar      1 <0>        -0.1235
     28 C22         5.5262    2.0165   -0.8683 C.ar      1 <0>        -0.1228
     29 C23         4.1505    1.9378   -0.7967 C.ar      1 <0>        -0.0849
     30 H3          3.1129   -5.2425   -1.4307 H         1 <0>         0.1206
     31 H4          1.4459   -4.9483    0.3542 H         1 <0>         0.1224
     32 H5          0.6085   -2.7024    0.9038 H         1 <0>         0.1202
     33 H6          3.1219   -1.0409   -2.1519 H         1 <0>         0.1253
     34 H7          3.9528   -3.2951   -2.6770 H         1 <0>         0.1238
     35 H8         -2.6361    4.0089    2.6484 H         1 <0>         0.1433
     36 H9         -4.3806    5.7244    2.9257 H         1 <0>         0.1180
     37 H10        -4.4738    7.6453    1.3880 H         1 <0>         0.1145
     38 H11        -2.8171    7.8554   -0.4215 H         1 <0>         0.1166
     39 H12        -1.0674    6.1443   -0.6936 H         1 <0>         0.1181
     40 H13         3.8848   -0.9656    0.9383 H         1 <0>         0.1175
     41 H14         6.3353   -0.8114    0.7905 H         1 <0>         0.1189
     42 H15         7.3855    1.0949   -0.3565 H         1 <0>         0.1173
     43 H16         5.9927    2.8512   -1.3704 H         1 <0>         0.1205
     44 H17         3.5404    2.7092   -1.2427 H         1 <0>         0.1249
     45 O2         -0.4290    3.7532    3.2482 O.co2     1 <0>        -0.7490
@<TRIPOS>BOND
     1    1    6 ar
     2    1    2 ar
     3    1   30 1
     4    2    3 ar
     5    2   31 1
     6    3    4 ar
     7    3   32 1
     8    4    5 ar
     9    4    7 1
    10    5    6 ar
    11    5   33 1
    12    6   34 1
    13    7   11 1
    14    7    8 2
    15    8    9 1
    16    8   24 1
    17    9   10 2
    18   10   11 1
    19   10   13 1
    20   11   12 1
    21   13   14 1
    22   14   15 1
    23   14   16 1
    24   14   22 1
    25   16   21 ar
    26   16   17 ar
    27   17   18 ar
    28   17   35 1
    29   18   19 ar
    30   18   36 1
    31   19   20 ar
    32   19   37 1
    33   20   21 ar
    34   20   38 1
    35   21   39 1
    36   22   23 2
    37   22   45 1
    38   24   29 ar
    39   24   25 ar
    40   25   26 ar
    41   25   40 1
    42   26   27 ar
    43   26   41 1
    44   27   28 ar
    45   27   42 1
    46   28   29 ar
    47   28   43 1
    48   29   44 1
@<TRIPOS>MOLECULE
ZINC20881044
   43    45     0     0     0
SMALL
USER_CHARGES
4-[(2-benzyloxy-5-chloro-phenyl)methylamino]-2-chloro-benzoic acid
@<TRIPOS>ATOM
      1 C1         -0.0167    1.3781    0.0096 C.ar      1 <0>        -0.1065
      2 C2          1.1709    2.0855    0.0021 C.ar      1 <0>        -0.1208
      3 C3          2.3773    1.4107   -0.0136 C.ar      1 <0>        -0.0913
      4 C4          2.3960    0.0285   -0.0217 C.ar      1 <0>        -0.0998
      5 C5          1.2084   -0.6789   -0.0136 C.ar      1 <0>        -0.0949
      6 C6          0.0021   -0.0041    0.0020 C.ar      1 <0>        -0.1232
      7 C7          3.7112   -0.7071   -0.0387 C.3       1 <0>         0.0994
      8 O1          4.1134   -0.9324   -1.3913 O.3       1 <0>        -0.2916
      9 C8          5.2876   -1.5892   -1.5846 C.ar      1 <0>         0.1549
     10 C9          6.0397   -2.0031   -0.4946 C.ar      1 <0>        -0.2028
     11 C10         7.2307   -2.6738   -0.6931 C.ar      1 <0>        -0.0631
     12 C11         7.6785   -2.9251   -1.9782 C.ar      1 <0>        -0.0760
     13 C12         6.9323   -2.5090   -3.0664 C.ar      1 <0>        -0.0512
     14 C13         5.7383   -1.8416   -2.8719 C.ar      1 <0>        -0.1208
     15 C14         4.9259   -1.3886   -4.0576 C.3       1 <0>         0.1814
     16 N1          5.1611    0.0378   -4.2944 N.pl3     1 <0>        -0.7474
     17 C15         4.5160    0.6840   -5.3427 C.ar      1 <0>         0.2304
     18 C16         3.6508   -0.0277   -6.1702 C.ar      1 <0>        -0.2145
     19 C17         3.0100    0.6014   -7.1987 C.ar      1 <0>        -0.0194
     20 C18         3.2286    1.9632   -7.4322 C.ar      1 <0>        -0.1675
     21 C19         4.1017    2.6801   -6.6054 C.ar      1 <0>         0.0432
     22 C20         4.7407    2.0391   -5.5660 C.ar      1 <0>        -0.2114
     23 Cl1         4.3781    4.3705   -6.8880 Cl        1 <0>        -0.0524
     24 C21         2.5415    2.6413   -8.5448 C.2       1 <0>         0.4897
     25 O2          2.7323    3.8245   -8.7460 O.co2     1 <0>        -0.6148
     26 O3          1.7013    1.9495   -9.3397 O.co2     1 <0>        -0.7657
     27 Cl2         9.1787   -3.7630   -2.2251 Cl        1 <0>        -0.0705
     28 H1         -0.9592    1.9054    0.0170 H         1 <0>         0.1247
     29 H2          1.1563    3.1654    0.0081 H         1 <0>         0.1261
     30 H3          3.3051    1.9634   -0.0195 H         1 <0>         0.1235
     31 H4          1.2231   -1.7587   -0.0199 H         1 <0>         0.1227
     32 H5         -0.9258   -0.5567    0.0079 H         1 <0>         0.1250
     33 H6          4.4748   -0.1049    0.4755 H         1 <0>         0.0733
     34 H7          3.5980   -1.6727    0.4759 H         1 <0>         0.0727
     35 H8          5.6925   -1.8035    0.5084 H         1 <0>         0.1379
     36 H9          7.8147   -2.9991    0.1551 H         1 <0>         0.1357
     37 H10         7.2836   -2.7057   -4.0685 H         1 <0>         0.1426
     38 H11         5.2246   -1.9622   -4.9474 H         1 <0>         0.0665
     39 H12         3.8576   -1.5555   -3.8554 H         1 <0>         0.0717
     40 H13         5.8481    0.5976   -3.6427 H         1 <0>         0.4130
     41 H14         3.4833   -1.0802   -5.9953 H         1 <0>         0.1162
     42 H15         2.3368    0.0462   -7.8351 H         1 <0>         0.1343
     43 H16         5.4155    2.5879   -4.9257 H         1 <0>         0.1206
@<TRIPOS>BOND
     1    1    6 ar
     2    1    2 ar
     3    1   28 1
     4    2    3 ar
     5    2   29 1
     6    3    4 ar
     7    3   30 1
     8    4    5 ar
     9    4    7 1
    10    5    6 ar
    11    5   31 1
    12    6   32 1
    13    7    8 1
    14    7   33 1
    15    7   34 1
    16    8    9 1
    17    9   14 ar
    18    9   10 ar
    19   10   11 ar
    20   10   35 1
    21   11   12 ar
    22   11   36 1
    23   12   13 ar
    24   12   27 1
    25   13   14 ar
    26   13   37 1
    27   14   15 1
    28   15   16 1
    29   15   38 1
    30   15   39 1
    31   16   17 1
    32   16   40 1
    33   17   22 ar
    34   17   18 ar
    35   18   19 ar
    36   18   41 1
    37   19   20 ar
    38   19   42 1
    39   20   21 ar
    40   20   24 1
    41   21   22 ar
    42   21   23 1
    43   22   43 1
    44   24   25 2
    45   24   26 1
@<TRIPOS>MOLECULE
ZINC12993223
   47    49     0     0     0
SMALL
USER_CHARGES

@<TRIPOS>ATOM
      1 C1          0.0042    1.4828    0.2662 C.3       1 <0>        -0.1503
      2 C2          0.0405   -0.0467    0.2467 C.3       1 <0>        -0.1193
      3 C3          0.8672   -0.5523    1.4307 C.3       1 <0>        -0.0589
      4 H1          1.8557   -0.0938    1.4058 H         1 <0>         0.0856
      5 C4          1.0080   -2.0733    1.3418 C.3       1 <0>         0.1303
      6 N1          1.7843   -2.4229    0.1496 N.am      1 <0>        -0.7322
      7 C5          2.0367   -3.7159   -0.1349 C.2       1 <0>         0.5021
      8 O1          1.6212   -4.5900    0.5961 O.2       1 <0>        -0.5051
      9 C6          2.8352   -4.0756   -1.3613 C.3       1 <0>         0.0966
     10 N2          2.9701   -5.5319   -1.4464 N.pl3     1 <0>        -0.4732
     11 C7          3.9823   -6.3049   -0.9260 C.2       1 <0>         0.1453
     12 N3          3.7104   -7.5523   -1.2313 N.2       1 <0>        -0.2647
     13 N4          2.6131   -7.6117   -1.8975 N.2       1 <0>        -0.3374
     14 C8          2.1141   -6.4059   -2.0538 C.2       1 <0>         0.3921
     15 S1          0.6213   -5.9933   -2.8940 S.3       1 <0>        -0.7937
     16 C9          5.1549   -5.8218   -0.1663 C.ar      1 <0>         0.0345
     17 C10         5.1305   -4.5616    0.4334 C.ar      1 <0>        -0.1156
     18 C11         6.2276   -4.1163    1.1410 C.ar      1 <0>        -0.1017
     19 C12         7.3517   -4.9167    1.2569 C.ar      1 <0>        -0.0425
     20 C13         7.3818   -6.1678    0.6642 C.ar      1 <0>        -0.1029
     21 C14         6.2886   -6.6263   -0.0410 C.ar      1 <0>        -0.0788
     22 Cl1         8.7289   -4.3491    2.1485 Cl        1 <0>        -0.0790
     23 C15         0.1759   -0.1863    2.7188 C.ar      1 <0>        -0.0690
     24 C16        -1.0963   -0.6600    2.9793 C.ar      1 <0>        -0.1111
     25 C17        -1.7304   -0.3242    4.1609 C.ar      1 <0>        -0.1172
     26 C18        -1.0920    0.4848    5.0822 C.ar      1 <0>        -0.1245
     27 C19         0.1806    0.9578    4.8221 C.ar      1 <0>        -0.1203
     28 C20         0.8164    0.6185    3.6424 C.ar      1 <0>        -0.1142
     29 H2          1.0200    1.8712    0.1924 H         1 <0>         0.0530
     30 H3         -0.5847    1.8430   -0.5773 H         1 <0>         0.0543
     31 H4         -0.4484    1.8237    1.1973 H         1 <0>         0.0551
     32 H5         -0.9753   -0.4351    0.3205 H         1 <0>         0.0684
     33 H6          0.4931   -0.3875   -0.6844 H         1 <0>         0.0695
     34 H7          1.5200   -2.4433    2.2301 H         1 <0>         0.0682
     35 H8          0.0189   -2.5266    1.2772 H         1 <0>         0.0708
     36 H9          2.1166   -1.7239   -0.4350 H         1 <0>         0.3990
     37 H10         2.3233   -3.7056   -2.2496 H         1 <0>         0.1291
     38 H11         3.8243   -3.6223   -1.2967 H         1 <0>         0.1120
     39 H12         4.2545   -3.9364    0.3434 H         1 <0>         0.1264
     40 H13         6.2101   -3.1413    1.6051 H         1 <0>         0.1331
     41 H14         8.2612   -6.7876    0.7580 H         1 <0>         0.1366
     42 H15         6.3115   -7.6041   -0.4992 H         1 <0>         0.1448
     43 H16        -1.5951   -1.2921    2.2595 H         1 <0>         0.1233
     44 H17        -2.7246   -0.6937    4.3641 H         1 <0>         0.1214
     45 H18        -1.5876    0.7477    6.0050 H         1 <0>         0.1192
     46 H19         0.6793    1.5902    5.5417 H         1 <0>         0.1201
     47 H20         1.8121    0.9850    3.4408 H         1 <0>         0.1206
@<TRIPOS>BOND
     1    1    2 1
     2    1   29 1
     3    1   30 1
     4    1   31 1
     5    2    3 1
     6    2   32 1
     7    2   33 1
     8    3    4 1
     9    3    5 1
    10    3   23 1
    11    5    6 1
    12    5   34 1
    13    5   35 1
    14    6    7 am
    15    6   36 1
    16    7    8 2
    17    7    9 1
    18    9   37 1
    19    9   38 1
    20    9   10 1
    21   10   14 1
    22   10   11 1
    23   11   16 1
    24   11   12 2
    25   12   13 1
    26   13   14 2
    27   14   15 1
    28   16   21 ar
    29   16   17 ar
    30   17   18 ar
    31   17   39 1
    32   18   19 ar
    33   18   40 1
    34   19   20 ar
    35   19   22 1
    36   20   21 ar
    37   20   41 1
    38   21   42 1
    39   23   28 ar
    40   23   24 ar
    41   24   25 ar
    42   24   43 1
    43   25   26 ar
    44   25   44 1
    45   26   27 ar
    46   26   45 1
    47   27   28 ar
    48   27   46 1
    49   28   47 1
@<TRIPOS>MOLECULE
ZINC51740034
   43    44     0     0     0
SMALL
USER_CHARGES

@<TRIPOS>ATOM
      1 C1          0.1117    1.5255    0.0834 C.3       1 <0>        -0.1470
      2 C2          0.1143   -0.0043    0.0647 C.3       1 <0>        -0.0816
      3 C3          0.7994   -0.4903   -1.1865 C.ar      1 <0>        -0.0977
      4 C4          0.0653   -0.7025   -2.3385 C.ar      1 <0>        -0.1171
      5 C5          0.6938   -1.1483   -3.4862 C.ar      1 <0>        -0.1158
      6 C6          2.0563   -1.3814   -3.4821 C.ar      1 <0>        -0.0727
      7 C7          2.7905   -1.1683   -2.3304 C.ar      1 <0>        -0.1158
      8 C8          2.1628   -0.7184   -1.1838 C.ar      1 <0>        -0.1172
      9 C9          2.7412   -1.8683   -4.7330 C.3       1 <0>        -0.0681
     10 C10         3.2078   -0.6680   -5.5591 C.3       1 <0>        -0.1519
     11 C11         3.8927   -1.1549   -6.8101 C.2       1 <0>         0.4197
     12 C12         4.4115   -0.2278   -7.7356 C.2       1 <0>        -0.4461
     13 C13         4.2879    1.1772   -7.4876 C.1       1 <0>         0.2957
     14 N1          4.1898    2.2917   -7.2908 N.1       1 <0>        -0.5346
     15 C14         5.0469   -0.6795   -8.8961 C.2       1 <0>         0.5454
     16 O1          5.1631   -2.0000   -9.1293 O.3       1 <0>        -0.6127
     17 N2          5.5479    0.2159   -9.7899 N.pl3     1 <0>        -0.6694
     18 C15         6.2928   -0.2320  -10.8858 C.ar      1 <0>         0.2115
     19 C16         6.9611   -1.4479  -10.8229 C.ar      1 <0>        -0.1265
     20 C17         7.6953   -1.8876  -11.9068 C.ar      1 <0>        -0.0866
     21 C18         7.7663   -1.1187  -13.0542 C.ar      1 <0>        -0.1565
     22 C19         7.1024    0.0923  -13.1208 C.ar      1 <0>        -0.0738
     23 C20         6.3612    0.5357  -12.0420 C.ar      1 <0>        -0.1467
     24 Br1         5.4475    2.1887  -12.1363 Br        1 <0>        -0.0621
     25 O2          3.9976   -2.3469   -7.0205 O.2       1 <0>        -0.4985
     26 H1          1.1385    1.8909    0.0661 H         1 <0>         0.0554
     27 H2         -0.4214    1.8987   -0.7911 H         1 <0>         0.0554
     28 H3         -0.3838    1.8770    0.9884 H         1 <0>         0.0544
     29 H4          0.6474   -0.3775    0.9392 H         1 <0>         0.0679
     30 H5         -0.9125   -0.3696    0.0820 H         1 <0>         0.0679
     31 H6         -0.9992   -0.5204   -2.3417 H         1 <0>         0.1166
     32 H7          0.1201   -1.3148   -4.3860 H         1 <0>         0.1212
     33 H8          3.8550   -1.3507   -2.3270 H         1 <0>         0.1212
     34 H9          2.7370   -0.5484   -0.2851 H         1 <0>         0.1167
     35 H10         3.6022   -2.4792   -4.4615 H         1 <0>         0.0757
     36 H11         2.0433   -2.4647   -5.3207 H         1 <0>         0.0756
     37 H12         2.3469   -0.0571   -5.8306 H         1 <0>         0.0758
     38 H13         3.9057   -0.0716   -4.9714 H         1 <0>         0.0759
     39 H14         6.9069   -2.0488   -9.9271 H         1 <0>         0.1667
     40 H15         8.2152   -2.8331  -11.8582 H         1 <0>         0.1256
     41 H16         8.3418   -1.4648  -13.9000 H         1 <0>         0.1229
     42 H17         7.1599    0.6903  -14.0183 H         1 <0>         0.1265
     43 H18         5.3885    1.1648   -9.6671 H         1 <0>         0.4048
@<TRIPOS>BOND
     1    1    2 1
     2    1   26 1
     3    1   27 1
     4    1   28 1
     5    2    3 1
     6    2   29 1
     7    2   30 1
     8    3    8 ar
     9    3    4 ar
    10    4    5 ar
    11    4   31 1
    12    5    6 ar
    13    5   32 1
    14    6    7 ar
    15    6    9 1
    16    7    8 ar
    17    7   33 1
    18    8   34 1
    19    9   35 1
    20    9   36 1
    21    9   10 1
    22   10   11 1
    23   10   37 1
    24   10   38 1
    25   11   12 1
    26   11   25 2
    27   12   13 1
    28   12   15 2
    29   13   14 3
    30   15   16 1
    31   15   17 1
    32   17   18 1
    33   17   43 1
    34   18   23 ar
    35   18   19 ar
    36   19   20 ar
    37   19   39 1
    38   20   21 ar
    39   20   40 1
    40   21   22 ar
    41   21   41 1
    42   22   23 ar
    43   22   42 1
    44   23   24 1
@<TRIPOS>MOLECULE
ZINC66505882
   49    50     0     0     0
SMALL
USER_CHARGES

@<TRIPOS>ATOM
      1 C1          1.3036    1.2133   -1.0439 C.3       1 <0>        -0.1517
      2 C2          1.0345   -0.2929   -1.0328 C.3       1 <0>        -0.1198
      3 C3         -0.0959   -0.6017   -0.0492 C.3       1 <0>        -0.0779
      4 C4         -0.3610   -2.0852   -0.0383 C.ar      1 <0>        -0.0813
      5 C5         -1.2816   -2.6269   -0.9179 C.ar      1 <0>        -0.1315
      6 C6         -1.5289   -3.9840   -0.9131 C.ar      1 <0>        -0.0782
      7 C7         -0.8477   -4.8113   -0.0186 C.ar      1 <0>        -0.1287
      8 C8          0.0802   -4.2584    0.8658 C.ar      1 <0>        -0.0800
      9 C9          0.3216   -2.9004    0.8473 C.ar      1 <0>        -0.1272
     10 C10        -1.1081   -6.2671   -0.0076 C.2       1 <0>         0.4490
     11 C11        -0.9623   -7.0280    1.2358 C.2       1 <0>        -0.4203
     12 C12        -0.6728   -6.3473    2.4620 C.1       1 <0>         0.3077
     13 N1         -0.4431   -5.8073    3.4347 N.1       1 <0>        -0.5316
     14 C13        -1.1052   -8.4116    1.2254 C.2       1 <0>         0.3800
     15 O1         -1.2591   -9.0648    0.0558 O.3       1 <0>        -0.5906
     16 C14        -1.0884   -9.1630    2.4915 C.ar      1 <0>        -0.0428
     17 C15        -1.8703   -8.7381    3.5711 C.ar      1 <0>        -0.1238
     18 C16        -1.8516   -9.4453    4.7546 C.ar      1 <0>        -0.0877
     19 C17        -1.0616  -10.5742    4.8791 C.ar      1 <0>        -0.2110
     20 C18        -0.2814  -11.0044    3.8139 C.ar      1 <0>         0.1180
     21 C19        -0.2956  -10.3073    2.6182 C.ar      1 <0>        -0.1147
     22 O2          0.4928  -12.1138    3.9439 O.3       1 <0>        -0.3077
     23 C20         0.4548  -12.7875    5.2036 C.3       1 <0>         0.0612
     24 C21         1.3831  -14.0029    5.1601 C.3       1 <0>         0.0632
     25 O3          2.7346  -13.5649    5.0062 O.3       1 <0>        -0.3827
     26 C22         3.6878  -14.6283    4.9540 C.3       1 <0>         0.0310
     27 O4         -1.4437   -6.8332   -1.0317 O.2       1 <0>        -0.4786
     28 H1          2.1090    1.4333   -1.7446 H         1 <0>         0.0526
     29 H2          0.4008    1.7414   -1.3505 H         1 <0>         0.0527
     30 H3          1.5928    1.5380   -0.0444 H         1 <0>         0.0528
     31 H4          0.7454   -0.6176   -2.0323 H         1 <0>         0.0633
     32 H5          1.9374   -0.8210   -0.7262 H         1 <0>         0.0632
     33 H6          0.1933   -0.2770    0.9503 H         1 <0>         0.0688
     34 H7         -0.9988   -0.0736   -0.3558 H         1 <0>         0.0688
     35 H8         -1.8080   -1.9857   -1.6094 H         1 <0>         0.1184
     36 H9         -2.2483   -4.4054   -1.5996 H         1 <0>         0.1268
     37 H10         0.6103   -4.8930    1.5605 H         1 <0>         0.1294
     38 H11         1.0422   -2.4719    1.5282 H         1 <0>         0.1172
     39 H12        -2.4876   -7.8568    3.4778 H         1 <0>         0.1245
     40 H13        -2.4555   -9.1166    5.5875 H         1 <0>         0.1215
     41 H14        -1.0515  -11.1233    5.8091 H         1 <0>         0.1213
     42 H15         0.3071  -10.6438    1.7876 H         1 <0>         0.1339
     43 H16         0.7834  -12.1073    5.9894 H         1 <0>         0.0690
     44 H17        -0.5640  -13.1155    5.4096 H         1 <0>         0.0758
     45 H18         1.2873  -14.5667    6.0881 H         1 <0>         0.0686
     46 H19         1.1093  -14.6393    4.3185 H         1 <0>         0.0615
     47 H20         4.6888  -14.2134    4.8363 H         1 <0>         0.0865
     48 H21         3.6398  -15.2050    5.8777 H         1 <0>         0.0391
     49 H22         3.4618  -15.2776    4.1081 H         1 <0>         0.0423
@<TRIPOS>BOND
     1    1    2 1
     2    1   28 1
     3    1   29 1
     4    1   30 1
     5    2    3 1
     6    2   31 1
     7    2   32 1
     8    3    4 1
     9    3   33 1
    10    3   34 1
    11    4    9 ar
    12    4    5 ar
    13    5    6 ar
    14    5   35 1
    15    6    7 ar
    16    6   36 1
    17    7    8 ar
    18    7   10 1
    19    8    9 ar
    20    8   37 1
    21    9   38 1
    22   10   11 1
    23   10   27 2
    24   11   12 1
    25   11   14 2
    26   12   13 3
    27   14   15 1
    28   14   16 1
    29   16   21 ar
    30   16   17 ar
    31   17   18 ar
    32   17   39 1
    33   18   19 ar
    34   18   40 1
    35   19   20 ar
    36   19   41 1
    37   20   21 ar
    38   20   22 1
    39   21   42 1
    40   22   23 1
    41   23   24 1
    42   23   43 1
    43   23   44 1
    44   24   25 1
    45   24   45 1
    46   24   46 1
    47   25   26 1
    48   26   47 1
    49   26   48 1
    50   26   49 1
@<TRIPOS>MOLECULE
ZINC05051048
   43    45     0     0     0
SMALL
USER_CHARGES
2-(4-fluorophenyl)-3-[4-[(4-nitrophenyl)methoxy]phenyl]-prop-2-enenitrile
@<TRIPOS>ATOM
      1 C1          6.2327    6.4866   -2.2734 C.ar      1 <0>        -0.0926
      2 C2          7.4055    7.0388   -2.7535 C.ar      1 <0>        -0.0560
      3 C3          7.6993    6.9721   -4.1026 C.ar      1 <0>        -0.0342
      4 C4          6.8226    6.3490   -4.9709 C.ar      1 <0>        -0.0562
      5 C5          5.6518    5.7930   -4.4902 C.ar      1 <0>        -0.0927
      6 C6          5.3583    5.8593   -3.1410 C.ar      1 <0>        -0.0464
      7 C7          4.0820    5.2531   -2.6169 C.3       1 <0>         0.0936
      8 O1          4.3153    3.8905   -2.2552 O.3       1 <0>        -0.3048
      9 C8          3.2594    3.1944   -1.7612 C.ar      1 <0>         0.1457
     10 C9          3.4194    1.8643   -1.3903 C.ar      1 <0>        -0.1523
     11 C10         2.3524    1.1536   -0.8888 C.ar      1 <0>        -0.0493
     12 C11         1.1036    1.7731   -0.7530 C.ar      1 <0>        -0.1178
     13 C12         0.9468    3.1119   -1.1338 C.ar      1 <0>        -0.0480
     14 C13         2.0223    3.8144   -1.6287 C.ar      1 <0>        -0.2113
     15 C14        -0.0380    1.0206   -0.2195 C.2       1 <0>         0.0020
     16 C15        -0.9501    1.6417    0.5773 C.2       1 <0>        -0.0339
     17 C16        -2.1459    0.9563    0.9659 C.1       1 <0>         0.2490
     18 N1         -3.0945    0.4126    1.2742 N.1       1 <0>        -0.4086
     19 C17        -0.7059    3.0265    1.0424 C.ar      1 <0>        -0.0531
     20 C18         0.3188    3.2888    1.9519 C.ar      1 <0>        -0.0621
     21 C19         0.5459    4.5811    2.3776 C.ar      1 <0>        -0.1491
     22 C20        -0.2495    5.6161    1.9126 C.ar      1 <0>         0.1064
     23 C21        -1.2723    5.3599    1.0134 C.ar      1 <0>        -0.1512
     24 C22        -1.5035    4.0720    0.5769 C.ar      1 <0>        -0.0810
     25 F1         -0.0267    6.8793    2.3368 F         1 <0>        -0.1368
     26 N2          8.9529    7.5675   -4.6174 N.pl3     1 <0>         0.0239
     27 O2          9.2119    7.5084   -5.8061 O.2       1 <0>        -0.1536
     28 O3          9.7254    8.1165   -3.8523 O.3       1 <0>        -0.1535
     29 H1          6.0012    6.5422   -1.2200 H         1 <0>         0.1510
     30 H2          8.0907    7.5253   -2.0751 H         1 <0>         0.1585
     31 H3          7.0521    6.2969   -6.0250 H         1 <0>         0.1585
     32 H4          4.9667    5.3065   -5.1687 H         1 <0>         0.1510
     33 H5          3.3145    5.2976   -3.3897 H         1 <0>         0.0836
     34 H6          3.7483    5.8095   -1.7410 H         1 <0>         0.0835
     35 H7          4.3828    1.3876   -1.4954 H         1 <0>         0.1360
     36 H8          2.4778    0.1203   -0.6009 H         1 <0>         0.1379
     37 H9         -0.0150    3.5933   -1.0355 H         1 <0>         0.1359
     38 H10         1.9038    4.8481   -1.9181 H         1 <0>         0.1310
     39 H11        -0.1566   -0.0250   -0.4627 H         1 <0>         0.1422
     40 H12         0.9362    2.4821    2.3186 H         1 <0>         0.1377
     41 H13         1.3421    4.7858    3.0780 H         1 <0>         0.1397
     42 H14        -1.8893    6.1700    0.6536 H         1 <0>         0.1400
     43 H15        -2.3005    3.8735   -0.1244 H         1 <0>         0.1373
@<TRIPOS>BOND
     1    1    6 ar
     2    1    2 ar
     3    1   29 1
     4    2    3 ar
     5    2   30 1
     6    3    4 ar
     7    3   26 1
     8    4    5 ar
     9    4   31 1
    10    5    6 ar
    11    5   32 1
    12    6    7 1
    13    7    8 1
    14    7   33 1
    15    7   34 1
    16    8    9 1
    17    9   14 ar
    18    9   10 ar
    19   10   11 ar
    20   10   35 1
    21   11   12 ar
    22   11   36 1
    23   12   13 ar
    24   12   15 1
    25   13   14 ar
    26   13   37 1
    27   14   38 1
    28   15   16 2
    29   15   39 1
    30   16   17 1
    31   16   19 1
    32   17   18 3
    33   19   24 ar
    34   19   20 ar
    35   20   21 ar
    36   20   40 1
    37   21   22 ar
    38   21   41 1
    39   22   23 ar
    40   22   25 1
    41   23   24 ar
    42   23   42 1
    43   24   43 1
    44   26   27 2
    45   26   28 1
@<TRIPOS>MOLECULE
ZINC10064454
   52    54     0     0     0
SMALL
USER_CHARGES
methyl 2-[6-methyl-2-[2-(2,4,6-trimethylphenyl)acetyl]imino-benzothiazol-3-yl]acetate
@<TRIPOS>ATOM
      1 C1         -2.5668    2.4000    2.1167 C.3       1 <0>        -0.1140
      2 C2         -1.2273    2.8635    1.6049 C.ar      1 <0>        -0.0823
      3 C3         -0.1712    1.9736    1.5008 C.ar      1 <0>        -0.0799
      4 C4          1.0563    2.3763    1.0309 C.ar      1 <0>        -0.1115
      5 C5          1.2761    3.7087    0.6471 C.ar      1 <0>         0.1162
      6 C6          0.1904    4.5879    0.7689 C.ar      1 <0>        -0.1788
      7 C7         -1.0369    4.1842    1.2389 C.ar      1 <0>        -0.0384
      8 S1          0.8524    6.1332    0.1990 S.3       1 <0>         0.1509
      9 C8          2.4619    5.6002   -0.1650 C.2       1 <0>         0.4352
     10 N1          3.4789    6.3128   -0.6449 N.2       1 <0>        -0.5826
     11 C9          3.3197    7.6061   -0.9048 C.2       1 <0>         0.4936
     12 O1          2.2451    8.1388   -0.7043 O.2       1 <0>        -0.5158
     13 C10         4.4709    8.4128   -1.4480 C.3       1 <0>        -0.0762
     14 C11         4.0314    9.8395   -1.6543 C.ar      1 <0>        -0.0783
     15 C12         3.4948   10.2289   -2.8673 C.ar      1 <0>        -0.0621
     16 C13         3.0868   11.5363   -3.0548 C.ar      1 <0>        -0.1262
     17 C14         3.2255   12.4569   -2.0329 C.ar      1 <0>        -0.0779
     18 C15         3.7674   12.0688   -0.8219 C.ar      1 <0>        -0.1264
     19 C16         4.1701   10.7601   -0.6325 C.ar      1 <0>        -0.0632
     20 C17         4.7608   10.3370    0.6878 C.3       1 <0>        -0.1158
     21 C18         2.7856   13.8834   -2.2391 C.3       1 <0>        -0.1142
     22 C19         3.3494    9.2267   -3.9834 C.3       1 <0>        -0.1181
     23 N2          2.4357    4.2801    0.1573 N.pl3     1 <0>        -0.4988
     24 C20         3.6385    3.4614   -0.0141 C.3       1 <0>         0.1105
     25 C21         4.3188    3.8326   -1.3065 C.2       1 <0>         0.4524
     26 O2          3.7666    4.5678   -2.0904 O.2       1 <0>        -0.4623
     27 O3          5.5381    3.3465   -1.5869 O.3       1 <0>        -0.3569
     28 C22         6.1328    3.7463   -2.8497 C.3       1 <0>         0.0409
     29 H1         -2.6023    2.5171    3.1998 H         1 <0>         0.0767
     30 H2         -3.3565    2.9971    1.6606 H         1 <0>         0.0717
     31 H3         -2.7106    1.3504    1.8599 H         1 <0>         0.0723
     32 H4         -0.3159    0.9432    1.7899 H         1 <0>         0.1392
     33 H5          1.8608    1.6596    0.9565 H         1 <0>         0.1335
     34 H6         -1.8484    4.8924    1.3179 H         1 <0>         0.1404
     35 H7          5.2991    8.3865   -0.7399 H         1 <0>         0.1029
     36 H8          4.7932    7.9907   -2.3999 H         1 <0>         0.1058
     37 H9          2.6632   11.8394   -4.0009 H         1 <0>         0.1200
     38 H10         3.8757   12.7880   -0.0235 H         1 <0>         0.1201
     39 H11         5.8418   10.4746    0.6629 H         1 <0>         0.0717
     40 H12         4.3356   10.9439    1.4872 H         1 <0>         0.0675
     41 H13         4.5323    9.2866    0.8682 H         1 <0>         0.0614
     42 H14         3.6180   14.4672   -2.6318 H         1 <0>         0.0698
     43 H15         1.9574   13.9095   -2.9473 H         1 <0>         0.0655
     44 H16         2.4630   14.3053   -1.2872 H         1 <0>         0.0656
     45 H17         2.3743    8.7445   -3.9139 H         1 <0>         0.0702
     46 H18         3.4350    9.7366   -4.9430 H         1 <0>         0.0668
     47 H19         4.1336    8.4742   -3.9005 H         1 <0>         0.0667
     48 H20         4.3195    3.6374    0.8186 H         1 <0>         0.1263
     49 H21         3.3603    2.4078   -0.0395 H         1 <0>         0.1334
     50 H22         7.1149    3.2845   -2.9512 H         1 <0>         0.1036
     51 H23         5.4929    3.4235   -3.6710 H         1 <0>         0.0621
     52 H24         6.2370    4.8310   -2.8750 H         1 <0>         0.0667
@<TRIPOS>BOND
     1    1    2 1
     2    1   29 1
     3    1   30 1
     4    1   31 1
     5    2    7 ar
     6    2    3 ar
     7    3    4 ar
     8    3   32 1
     9    4    5 ar
    10    4   33 1
    11    5   23 1
    12    5    6 ar
    13    6    7 ar
    14    6    8 1
    15    7   34 1
    16    8    9 1
    17    9   10 2
    18    9   23 1
    19   10   11 1
    20   11   12 2
    21   11   13 1
    22   13   14 1
    23   13   35 1
    24   13   36 1
    25   14   19 ar
    26   14   15 ar
    27   15   16 ar
    28   15   22 1
    29   16   17 ar
    30   16   37 1
    31   17   18 ar
    32   17   21 1
    33   18   19 ar
    34   18   38 1
    35   19   20 1
    36   20   39 1
    37   20   40 1
    38   20   41 1
    39   21   42 1
    40   21   43 1
    41   21   44 1
    42   22   45 1
    43   22   46 1
    44   22   47 1
    45   23   24 1
    46   24   25 1
    47   24   48 1
    48   24   49 1
    49   25   26 2
    50   25   27 1
    51   27   28 1
    52   28   50 1
    53   28   51 1
    54   28   52 1
@<TRIPOS>MOLECULE
ZINC20848556
   49    52     0     0     0
SMALL
USER_CHARGES
N-butyl-N-methyl-3-[3-(trifluoromethyl)phenyl]triazolo[1,5-a]quinazolin-5-amine
@<TRIPOS>ATOM
      1 C1         -8.4678    4.4221   -2.5596 C.3       1 <0>        -0.1540
      2 C2         -7.1534    4.5848   -1.7937 C.3       1 <0>        -0.1245
      3 C3         -6.1944    5.4573   -2.6060 C.3       1 <0>        -0.1170
      4 C4         -4.8800    5.6200   -1.8400 C.3       1 <0>         0.0560
      5 N1         -3.9592    6.4578   -2.6200 N.pl3     1 <0>        -0.4873
      6 C5         -3.5586    5.7840   -3.8623 C.3       1 <0>         0.0200
      7 C6         -2.8558    6.8097   -1.8705 C.2       1 <0>         0.4163
      8 C7         -2.5417    8.2242   -1.6239 C.ar      1 <0>        -0.1135
      9 C8         -3.3360    9.2517   -2.1333 C.ar      1 <0>        -0.0350
     10 C9         -2.9994   10.5621   -1.8742 C.ar      1 <0>        -0.1223
     11 C10        -1.8788   10.8632   -1.1133 C.ar      1 <0>        -0.0606
     12 C11        -1.0835    9.8579   -0.6038 C.ar      1 <0>        -0.1198
     13 C12        -1.4057    8.5317   -0.8531 C.ar      1 <0>         0.1756
     14 N2         -0.6387    7.4894   -0.3641 N.pl3     1 <0>        -0.3282
     15 C13        -0.9856    6.1924   -0.6361 C.2       1 <0>         0.2570
     16 N3         -2.0682    5.8833   -1.3647 N.2       1 <0>        -0.4832
     17 C14        -0.0248    5.4006   -0.0043 C.2       1 <0>         0.0177
     18 N4          0.8484    6.2100    0.6026 N.2       1 <0>        -0.1935
     19 N5          0.5233    7.4406    0.4152 N.2       1 <0>        -0.0639
     20 C15         0.0222    3.9206   -0.0109 C.ar      1 <0>        -0.0010
     21 C16        -1.1613    3.1821    0.0094 C.ar      1 <0>        -0.0568
     22 C17        -1.1110    1.8035   -0.0022 C.ar      1 <0>        -0.1177
     23 C18         0.1102    1.1531   -0.0223 C.ar      1 <0>        -0.0660
     24 C19         1.2871    1.8797   -0.0425 C.ar      1 <0>        -0.1821
     25 C20         1.2499    3.2591   -0.0369 C.ar      1 <0>        -0.0426
     26 C21         2.6127    1.1633   -0.0701 C.3       1 <0>         0.5097
     27 F1          2.3959   -0.2188   -0.0704 F         1 <0>        -0.1762
     28 F2          3.3145    1.5255   -1.2248 F         1 <0>        -0.1757
     29 F3          3.3582    1.5182    1.0593 F         1 <0>        -0.1741
     30 H1         -9.1573    3.7948   -1.9755 H         1 <0>         0.0559
     31 H2         -8.2698    3.9438   -3.5302 H         1 <0>         0.0550
     32 H3         -8.9213    5.4107   -2.7237 H         1 <0>         0.0557
     33 H4         -7.3514    5.0631   -0.8231 H         1 <0>         0.0631
     34 H5         -6.6999    3.5962   -1.6295 H         1 <0>         0.0628
     35 H6         -5.9964    4.9790   -3.5766 H         1 <0>         0.0690
     36 H7         -6.6479    6.4459   -2.7702 H         1 <0>         0.0752
     37 H8         -5.0781    6.0983   -0.8694 H         1 <0>         0.0781
     38 H9         -4.4265    4.6314   -1.6758 H         1 <0>         0.0588
     39 H10        -2.8709    6.4320   -4.4255 H         1 <0>         0.0739
     40 H11        -4.4508    5.5784   -4.4720 H         1 <0>         0.0922
     41 H12        -3.0542    4.8371   -3.6196 H         1 <0>         0.0514
     42 H13        -4.2090    9.0214   -2.7260 H         1 <0>         0.1579
     43 H14        -3.6117   11.3606   -2.2663 H         1 <0>         0.1441
     44 H15        -1.6266   11.8951   -0.9183 H         1 <0>         0.1454
     45 H16        -0.2133   10.1022   -0.0127 H         1 <0>         0.1492
     46 H17        -2.1150    3.6886    0.0299 H         1 <0>         0.1347
     47 H18        -2.0265    1.2307    0.0086 H         1 <0>         0.1399
     48 H19         0.1445    0.0736   -0.0268 H         1 <0>         0.1417
     49 H20         2.1695    3.8253   -0.0523 H         1 <0>         0.1389
@<TRIPOS>BOND
     1    1    2 1
     2    1   30 1
     3    1   31 1
     4    1   32 1
     5    2    3 1
     6    2   33 1
     7    2   34 1
     8    3    4 1
     9    3   35 1
    10    3   36 1
    11    4    5 1
    12    4   37 1
    13    4   38 1
    14    5    6 1
    15    5    7 1
    16    6   39 1
    17    6   40 1
    18    6   41 1
    19    7   16 2
    20    7    8 1
    21    8   13 ar
    22    8    9 ar
    23    9   10 ar
    24    9   42 1
    25   10   11 ar
    26   10   43 1
    27   11   12 ar
    28   11   44 1
    29   12   13 ar
    30   12   45 1
    31   13   14 1
    32   14   19 1
    33   14   15 1
    34   15   16 1
    35   15   17 2
    36   17   18 1
    37   17   20 1
    38   18   19 2
    39   20   25 ar
    40   20   21 ar
    41   21   22 ar
    42   21   46 1
    43   22   23 ar
    44   22   47 1
    45   23   24 ar
    46   23   48 1
    47   24   25 ar
    48   24   26 1
    49   25   49 1
    50   26   27 1
    51   26   28 1
    52   26   29 1
@<TRIPOS>MOLECULE
ZINC39012778
   46    49     0     0     0
SMALL
USER_CHARGES

@<TRIPOS>ATOM
      1 C1          0.1187    1.3727    1.3453 C.ar      1 <0>        -0.1115
      2 C2          1.2802    2.0870    1.1118 C.ar      1 <0>        -0.1191
      3 C3          2.4668    1.4225    0.8780 C.ar      1 <0>        -0.1050
      4 C4          2.4937    0.0287    0.8774 C.ar      1 <0>        -0.0596
      5 C5          1.3201   -0.6858    1.1133 C.ar      1 <0>        -0.1041
      6 C6          0.1393   -0.0105    1.3459 C.ar      1 <0>        -0.1181
      7 C7          3.7654   -0.6910    0.6263 C.ar      1 <0>        -0.0091
      8 C8          4.9389    0.0275    0.3958 C.ar      1 <0>        -0.1191
      9 C9          6.1203   -0.6389    0.1631 C.ar      1 <0>        -0.0727
     10 C10         6.1441   -2.0372    0.1576 C.ar      1 <0>        -0.0767
     11 C11         4.9669   -2.7558    0.3888 C.ar      1 <0>        -0.0606
     12 C12         3.7883   -2.0861    0.6265 C.ar      1 <0>        -0.1180
     13 C13         7.4075   -2.7522   -0.0918 C.2       1 <0>         0.1462
     14 N1          7.4287   -4.0512   -0.0968 N.2       1 <0>        -0.1862
     15 N2          8.6475   -4.7314   -0.2183 N.pl3     1 <0>        -0.4238
     16 C14        10.0066   -4.1574   -0.2348 C.3       1 <0>         0.1121
     17 H1         10.1281   -3.4824   -1.0820 H         1 <0>         0.1765
     18 N3         10.8749   -5.3365   -0.3829 N.2       1 <0>        -0.0577
     19 N4         10.1522   -6.3351   -0.4358 N.2       1 <0>        -0.1197
     20 C15         8.8451   -6.0626   -0.3410 C.2       1 <0>         0.3726
     21 S1          7.5985   -7.2355   -0.3742 S.2       1 <0>        -0.3202
     22 C16        10.3001   -3.4293    1.0785 C.3       1 <0>         0.0727
     23 O1         10.2001   -4.3505    2.1664 O.3       1 <0>        -0.3125
     24 C17        10.4332   -3.8611    3.4126 C.ar      1 <0>         0.1248
     25 C18        10.7460   -2.5206    3.5854 C.ar      1 <0>        -0.2070
     26 C19        10.9821   -2.0254    4.8533 C.ar      1 <0>        -0.0786
     27 C20        10.9072   -2.8647    5.9495 C.ar      1 <0>        -0.1506
     28 C21        10.5960   -4.2012    5.7799 C.ar      1 <0>        -0.0768
     29 C22        10.3530   -4.6999    4.5148 C.ar      1 <0>        -0.1435
     30 H2         -0.8068    1.8970    1.5323 H         1 <0>         0.1250
     31 H3          1.2581    3.1668    1.1122 H         1 <0>         0.1264
     32 H4          3.3729    1.9812    0.6955 H         1 <0>         0.1267
     33 H5          1.3349   -1.7657    1.1136 H         1 <0>         0.1277
     34 H6         -0.7704   -0.5630    1.5292 H         1 <0>         0.1269
     35 H7          4.9202    1.1074    0.3998 H         1 <0>         0.1349
     36 H8          7.0285   -0.0824   -0.0156 H         1 <0>         0.1331
     37 H9          4.9834   -3.8356    0.3849 H         1 <0>         0.1416
     38 H10         2.8798   -2.6407    0.8094 H         1 <0>         0.1347
     39 H11         8.3162   -2.1966   -0.2706 H         1 <0>         0.1289
     40 H12        11.3071   -3.0133    1.0462 H         1 <0>         0.1076
     41 H13         9.5786   -2.6241    1.2167 H         1 <0>         0.0861
     42 H14        10.8053   -1.8648    2.7294 H         1 <0>         0.1254
     43 H15        11.2257   -0.9820    4.9883 H         1 <0>         0.1283
     44 H16        11.0925   -2.4758    6.9399 H         1 <0>         0.1278
     45 H17        10.5385   -4.8548    6.6378 H         1 <0>         0.1335
     46 H18        10.1057   -5.7429    4.3833 H         1 <0>         0.1312
@<TRIPOS>BOND
     1    1    6 ar
     2    1    2 ar
     3    1   30 1
     4    2    3 ar
     5    2   31 1
     6    3    4 ar
     7    3   32 1
     8    4    5 ar
     9    4    7 1
    10    5    6 ar
    11    5   33 1
    12    6   34 1
    13    7   12 ar
    14    7    8 ar
    15    8    9 ar
    16    8   35 1
    17    9   10 ar
    18    9   36 1
    19   10   11 ar
    20   10   13 1
    21   11   12 ar
    22   11   37 1
    23   12   38 1
    24   13   14 2
    25   13   39 1
    26   14   15 1
    27   15   20 1
    28   15   16 1
    29   16   17 1
    30   16   18 1
    31   16   22 1
    32   18   19 2
    33   19   20 1
    34   20   21 2
    35   22   23 1
    36   22   40 1
    37   22   41 1
    38   23   24 1
    39   24   29 ar
    40   24   25 ar
    41   25   26 ar
    42   25   42 1
    43   26   27 ar
    44   26   43 1
    45   27   28 ar
    46   27   44 1
    47   28   29 ar
    48   28   45 1
    49   29   46 1
@<TRIPOS>MOLECULE
ZINC35529658
   49    52     0     0     0
SMALL
USER_CHARGES

@<TRIPOS>ATOM
      1 C1         -0.0187    1.5258    0.0104 C.3       1 <0>        -0.1538
      2 C2          0.0021   -0.0041    0.0020 C.3       1 <0>        -0.1177
      3 C3          0.7182   -0.4975   -1.2568 C.3       1 <0>        -0.1054
      4 C4          0.7390   -2.0273   -1.2652 C.3       1 <0>        -0.1049
      5 S1          1.5880   -2.6123   -2.7577 S.3       1 <0>         0.0040
      6 C5          1.5292   -4.3680   -2.6210 C.2       1 <0>         0.2110
      7 N1          0.9782   -5.0482   -1.6445 N.2       1 <0>        -0.2790
      8 N2          1.1480   -6.4116   -1.9161 N.2       1 <0>        -0.3094
      9 C6          1.7989   -6.5223   -3.0527 C.2       1 <0>         0.4668
     10 N3          2.0446   -5.2624   -3.5170 N.pl3     1 <0>        -0.4280
     11 C7          2.7285   -5.0635   -4.7300 C.2       1 <0>         0.1669
     12 C8          3.0773   -3.8753   -5.3667 C.2       1 <0>        -0.1888
     13 C9          3.7428   -3.9160   -6.5415 C.2       1 <0>        -0.1961
     14 S2          3.9365   -5.5558   -6.8550 S.3       1 <0>         0.3713
     15 C10         3.1295   -6.2084   -5.4181 C.2       1 <0>        -0.3223
     16 C11         2.8664   -7.4955   -4.9310 C.2       1 <0>         0.6093
     17 O1          3.2310   -8.4748   -5.5571 O.2       1 <0>        -0.4952
     18 N4          2.2137   -7.6425   -3.7575 N.am      1 <0>        -0.4998
     19 C12         1.9309   -8.9828   -3.2379 C.3       1 <0>         0.1596
     20 C13         0.6005   -9.4554   -3.7648 C.ar      1 <0>        -0.1298
     21 C14        -0.5577   -9.1841   -3.0607 C.ar      1 <0>        -0.0869
     22 C15        -1.7780   -9.6177   -3.5441 C.ar      1 <0>        -0.1242
     23 C16        -1.8402  -10.3222   -4.7318 C.ar      1 <0>        -0.0682
     24 C17        -0.6821  -10.5928   -5.4364 C.ar      1 <0>        -0.1247
     25 C18         0.5378  -10.1555   -4.9552 C.ar      1 <0>        -0.0871
     26 C19        -3.1705  -10.7957   -5.2582 C.3       1 <0>        -0.0881
     27 C20        -3.7738   -9.7189   -6.1622 C.3       1 <0>        -0.1470
     28 H1          1.0039    1.9031    0.0027 H         1 <0>         0.0559
     29 H2         -0.5459    1.8868   -0.8726 H         1 <0>         0.0559
     30 H3         -0.5289    1.8773    0.9072 H         1 <0>         0.0585
     31 H4          0.5293   -0.3651    0.8851 H         1 <0>         0.0674
     32 H5         -1.0205   -0.3814    0.0098 H         1 <0>         0.0673
     33 H6          0.1910   -0.1364   -2.1398 H         1 <0>         0.0759
     34 H7          1.7408   -0.1202   -1.2645 H         1 <0>         0.0760
     35 H8          1.2661   -2.3884   -0.3821 H         1 <0>         0.1000
     36 H9         -0.2836   -2.4046   -1.2575 H         1 <0>         0.0998
     37 H10         2.8166   -2.9256   -4.9236 H         1 <0>         0.1533
     38 H11         4.0748   -3.0830   -7.1435 H         1 <0>         0.2113
     39 H12         2.7138   -9.6697   -3.5593 H         1 <0>         0.1148
     40 H13         1.8999   -8.9512   -2.1488 H         1 <0>         0.1090
     41 H14        -0.5091   -8.6336   -2.1328 H         1 <0>         0.1296
     42 H15        -2.6829   -9.4063   -2.9936 H         1 <0>         0.1230
     43 H16        -0.7306  -11.1435   -6.3641 H         1 <0>         0.1235
     44 H17         1.4422  -10.3636   -5.5075 H         1 <0>         0.1299
     45 H18        -3.0293  -11.7129   -5.8300 H         1 <0>         0.0734
     46 H19        -3.8440  -10.9883   -4.4231 H         1 <0>         0.0733
     47 H20        -4.7360  -10.0614   -6.5430 H         1 <0>         0.0598
     48 H21        -3.9150   -8.8017   -5.5904 H         1 <0>         0.0548
     49 H22        -3.1003   -9.5263   -6.9973 H         1 <0>         0.0552
@<TRIPOS>BOND
     1    1    2 1
     2    1   28 1
     3    1   29 1
     4    1   30 1
     5    2    3 1
     6    2   31 1
     7    2   32 1
     8    3    4 1
     9    3   33 1
    10    3   34 1
    11    4    5 1
    12    4   35 1
    13    4   36 1
    14    5    6 1
    15    6   10 1
    16    6    7 2
    17    7    8 1
    18    8    9 2
    19    9   18 1
    20    9   10 1
    21   10   11 1
    22   11   15 2
    23   11   12 1
    24   12   13 2
    25   12   37 1
    26   13   14 1
    27   13   38 1
    28   14   15 1
    29   15   16 1
    30   16   17 2
    31   16   18 am
    32   18   19 1
    33   19   20 1
    34   19   39 1
    35   19   40 1
    36   20   25 ar
    37   20   21 ar
    38   21   22 ar
    39   21   41 1
    40   22   23 ar
    41   22   42 1
    42   23   24 ar
    43   23   26 1
    44   24   25 ar
    45   24   43 1
    46   25   44 1
    47   26   27 1
    48   26   45 1
    49   26   46 1
    50   27   47 1
    51   27   48 1
    52   27   49 1
@<TRIPOS>MOLECULE
ZINC01396571
   43    46     0     0     0
SMALL
USER_CHARGES
1-[(2-chlorophenyl)methoxy]-2-(4-methoxyphenyl)-benzoimidazole
@<TRIPOS>ATOM
      1 C1          6.6616   -0.8365    0.2623 C.3       1 <0>         0.0239
      2 O1          6.4145    0.5342   -0.0571 O.3       1 <0>        -0.3116
      3 C2          5.1208    0.9471   -0.0427 C.ar      1 <0>         0.1506
      4 C3          4.8116    2.2674   -0.3439 C.ar      1 <0>        -0.1528
      5 C4          3.5001    2.6902   -0.3299 C.ar      1 <0>        -0.0245
      6 C5          2.4816    1.7897   -0.0123 C.ar      1 <0>        -0.0775
      7 C6          2.7969    0.4648    0.2955 C.ar      1 <0>        -0.0621
      8 C7          4.1102    0.0481    0.2738 C.ar      1 <0>        -0.2083
      9 C8          1.0736    2.2391    0.0038 C.2       1 <0>         0.3476
     10 N1          0.6815    3.4900    0.0138 N.2       1 <0>        -0.4627
     11 C9         -0.6729    3.5426    0.0267 C.ar      1 <0>         0.0581
     12 C10        -1.5935    4.5956    0.0399 C.ar      1 <0>        -0.0616
     13 C11        -2.9331    4.3285    0.0371 C.ar      1 <0>        -0.1209
     14 C12        -3.3941    3.0196    0.0319 C.ar      1 <0>        -0.0972
     15 C13        -2.5052    1.9654    0.0230 C.ar      1 <0>        -0.1051
     16 C14        -1.1401    2.2164    0.0188 C.ar      1 <0>         0.0516
     17 N2         -0.0171    1.4118    0.0098 N.pl3     1 <0>        -0.3561
     18 O2          0.0021   -0.0041    0.0020 O.3       1 <0>        -0.1125
     19 C15         0.0219   -0.5923    1.3042 C.3       1 <0>         0.0559
     20 C16         0.0411   -2.0937    1.1770 C.ar      1 <0>        -0.0829
     21 C17         0.0321   -2.6817   -0.0741 C.ar      1 <0>        -0.0901
     22 C18         0.0541   -4.0588   -0.1910 C.ar      1 <0>        -0.1087
     23 C19         0.0756   -4.8492    0.9432 C.ar      1 <0>        -0.0998
     24 C20         0.0794   -4.2626    2.1945 C.ar      1 <0>        -0.1042
     25 C21         0.0622   -2.8840    2.3121 C.ar      1 <0>        -0.0269
     26 Cl1         0.0664   -2.1465    3.8837 Cl        1 <0>        -0.0601
     27 H1          7.7326   -1.0334    0.2142 H         1 <0>         0.1041
     28 H2          6.2985   -1.0463    1.2684 H         1 <0>         0.0581
     29 H3          6.1423   -1.4754   -0.4520 H         1 <0>         0.0582
     30 H4          5.6000    2.9634   -0.5898 H         1 <0>         0.1422
     31 H5          3.2605    3.7170   -0.5639 H         1 <0>         0.1476
     32 H6          2.0121   -0.2336    0.5460 H         1 <0>         0.1322
     33 H7          4.3545   -0.9775    0.5078 H         1 <0>         0.1349
     34 H8         -1.2458    5.6180    0.0418 H         1 <0>         0.1357
     35 H9         -3.6407    5.1444    0.0447 H         1 <0>         0.1343
     36 H10        -4.4565    2.8253    0.0352 H         1 <0>         0.1341
     37 H11        -2.8696    0.9487    0.0190 H         1 <0>         0.1250
     38 H12         0.9123   -0.2615    1.8388 H         1 <0>         0.0903
     39 H13        -0.8674   -0.2857    1.8549 H         1 <0>         0.0888
     40 H14         0.0111   -2.0649   -0.9604 H         1 <0>         0.1392
     41 H15         0.0504   -4.5176   -1.1687 H         1 <0>         0.1353
     42 H16         0.0890   -5.9252    0.8513 H         1 <0>         0.1376
     43 H17         0.0955   -4.8801    3.0804 H         1 <0>         0.1402
@<TRIPOS>BOND
     1    1    2 1
     2    1   27 1
     3    1   28 1
     4    1   29 1
     5    2    3 1
     6    3    8 ar
     7    3    4 ar
     8    4    5 ar
     9    4   30 1
    10    5    6 ar
    11    5   31 1
    12    6    7 ar
    13    6    9 1
    14    7    8 ar
    15    7   32 1
    16    8   33 1
    17    9   17 1
    18    9   10 2
    19   10   11 1
    20   11   16 ar
    21   11   12 ar
    22   12   13 ar
    23   12   34 1
    24   13   14 ar
    25   13   35 1
    26   14   15 ar
    27   14   36 1
    28   15   16 ar
    29   15   37 1
    30   16   17 1
    31   17   18 1
    32   18   19 1
    33   19   20 1
    34   19   38 1
    35   19   39 1
    36   20   25 ar
    37   20   21 ar
    38   21   22 ar
    39   21   40 1
    40   22   23 ar
    41   22   41 1
    42   23   24 ar
    43   23   42 1
    44   24   25 ar
    45   24   43 1
    46   25   26 1
@<TRIPOS>MOLECULE
ZINC02996558
   55    58     0     0     0
SMALL
USER_CHARGES
ethyl-methyl-(2-methylprop-2-enylsulfanyl)-(p-tolyl)BLAHone
@<TRIPOS>ATOM
      1 C1         -9.8375   -0.0853    0.1484 C.3       1 <0>        -0.1513
      2 C2         -8.3709    0.1410   -0.2240 C.3       1 <0>        -0.1089
      3 C3         -7.9729    1.5775    0.1210 C.3       1 <0>         0.1136
      4 C4         -6.5047    1.8013   -0.2527 C.3       1 <0>        -0.0792
      5 C5         -6.2048    3.2926   -0.1213 C.2       1 <0>        -0.0305
      6 C6         -7.2254    4.1764   -0.0830 C.2       1 <0>        -0.2270
      7 S1         -6.4544    5.7619    0.0731 S.3       1 <0>         0.1738
      8 C7         -4.7592    5.2333    0.0858 C.2       1 <0>         0.1199
      9 C8         -4.8508    3.8349   -0.0317 C.2       1 <0>        -0.2519
     10 C9         -3.6064    3.1291   -0.0484 C.2       1 <0>         0.5608
     11 O1         -3.5869    1.9141   -0.1466 O.2       1 <0>        -0.5030
     12 N1         -2.4578    3.8238    0.0461 N.am      1 <0>        -0.4691
     13 C10        -2.4605    5.1857    0.1624 C.2       1 <0>         0.3776
     14 N2         -3.5924    5.8601    0.1756 N.2       1 <0>        -0.4983
     15 S2         -0.9308    6.0509    0.2899 S.3       1 <0>         0.0436
     16 C11        -1.5405    7.7506    0.4139 C.3       1 <0>        -0.0764
     17 C12        -0.3728    8.6955    0.5355 C.2       1 <0>        -0.1296
     18 C13        -0.0125    9.4268   -0.4899 C.2       1 <0>        -0.1540
     19 C14         0.3804    8.7990    1.8367 C.3       1 <0>        -0.1216
     20 C15        -1.2363    3.1377    0.0307 C.ar      1 <0>         0.0803
     21 C16        -0.5870    2.9000   -1.1734 C.ar      1 <0>        -0.0810
     22 C17         0.6142    2.2184   -1.1858 C.ar      1 <0>        -0.1104
     23 C18         1.1758    1.7827    0.0004 C.ar      1 <0>        -0.0604
     24 C19         0.5346    2.0233    1.2017 C.ar      1 <0>        -0.1106
     25 C20        -0.6696    2.6994    1.2201 C.ar      1 <0>        -0.0812
     26 C21         2.4897    1.0447   -0.0161 C.3       1 <0>        -0.1202
     27 C22        -8.6846    3.8491   -0.1604 C.3       1 <0>         0.1481
     28 O2         -8.8087    2.4871   -0.5997 O.3       1 <0>        -0.3556
     29 C23        -8.1548    1.8074    1.6227 C.3       1 <0>        -0.1832
     30 H1         -9.9710    0.0819    1.2172 H         1 <0>         0.0555
     31 H2        -10.4654    0.6095   -0.4093 H         1 <0>         0.0635
     32 H3        -10.1210   -1.1087   -0.0974 H         1 <0>         0.0546
     33 H4         -8.2374   -0.0262   -1.2928 H         1 <0>         0.0719
     34 H5         -7.7430   -0.5538    0.3337 H         1 <0>         0.0778
     35 H6         -6.3332    1.4804   -1.2802 H         1 <0>         0.0887
     36 H7         -5.8625    1.2357    0.4224 H         1 <0>         0.0960
     37 H8         -2.1154    7.9965   -0.4789 H         1 <0>         0.1079
     38 H9         -2.1773    7.8449    1.2935 H         1 <0>         0.1103
     39 H10         0.8243   10.1040   -0.4027 H         1 <0>         0.1098
     40 H11        -0.5523    9.3526   -1.4224 H         1 <0>         0.1038
     41 H12         1.1978    8.0779    1.8417 H         1 <0>         0.0709
     42 H13         0.7836    9.8060    1.9440 H         1 <0>         0.0703
     43 H14        -0.2954    8.5879    2.6654 H         1 <0>         0.0670
     44 H15        -1.0228    3.2442   -2.0997 H         1 <0>         0.1273
     45 H16         1.1175    2.0293   -2.1224 H         1 <0>         0.1349
     46 H17         0.9761    1.6824    2.1265 H         1 <0>         0.1348
     47 H18        -1.1698    2.8873    2.1587 H         1 <0>         0.1272
     48 H19         3.3086    1.7589    0.0697 H         1 <0>         0.0774
     49 H20         2.5257    0.3482    0.8215 H         1 <0>         0.0713
     50 H21         2.5849    0.4934   -0.9516 H         1 <0>         0.0713
     51 H22        -9.1407    3.9628    0.8230 H         1 <0>         0.0793
     52 H23        -9.1740    4.5123   -0.8736 H         1 <0>         0.1125
     53 H24        -7.8671    2.8289    1.8714 H         1 <0>         0.0617
     54 H25        -9.1993    1.6486    1.8907 H         1 <0>         0.0716
     55 H26        -7.5274    1.1084    2.1758 H         1 <0>         0.0685
@<TRIPOS>BOND
     1    1    2 1
     2    1   30 1
     3    1   31 1
     4    1   32 1
     5    2    3 1
     6    2   33 1
     7    2   34 1
     8    3   28 1
     9    3    4 1
    10    3   29 1
    11    4    5 1
    12    4   35 1
    13    4   36 1
    14    5    9 1
    15    5    6 2
    16    6    7 1
    17    6   27 1
    18    7    8 1
    19    8   14 1
    20    8    9 2
    21    9   10 1
    22   10   11 2
    23   10   12 am
    24   12   13 1
    25   12   20 1
    26   13   14 2
    27   13   15 1
    28   15   16 1
    29   16   17 1
    30   16   37 1
    31   16   38 1
    32   17   18 2
    33   17   19 1
    34   18   39 1
    35   18   40 1
    36   19   41 1
    37   19   42 1
    38   19   43 1
    39   20   25 ar
    40   20   21 ar
    41   21   22 ar
    42   21   44 1
    43   22   23 ar
    44   22   45 1
    45   23   24 ar
    46   23   26 1
    47   24   25 ar
    48   24   46 1
    49   25   47 1
    50   26   48 1
    51   26   49 1
    52   26   50 1
    53   27   28 1
    54   27   51 1
    55   27   52 1
    56   29   53 1
    57   29   54 1
    58   29   55 1
@<TRIPOS>MOLECULE
ZINC20602763
   47    50     0     0     0
SMALL
USER_CHARGES
1-[(3-chlorophenyl)methyl]-4-(difluoromethyl)-6-(4-methoxyphenyl)-3-methyl-pyrazolo[5,4-b]pyridine
@<TRIPOS>ATOM
      1 C1         -0.1457   -4.8448   -4.2653 C.3       1 <0>        -0.0928
      2 C2          0.7313   -4.2592   -3.1888 C.2       1 <0>         0.1046
      3 C3          2.1175   -4.0007   -3.3024 C.ar      1 <0>        -0.2037
      4 C4          3.0556   -4.1744   -4.3315 C.ar      1 <0>        -0.0344
      5 C5          4.3512   -3.8073   -4.0975 C.ar      1 <0>        -0.1653
      6 C6          4.7047   -3.2742   -2.8529 C.ar      1 <0>         0.2575
      7 N1          3.8070   -3.1171   -1.8930 N.ar      1 <0>        -0.4846
      8 C7          2.5381   -3.4581   -2.0716 C.ar      1 <0>         0.3290
      9 N2          1.4271   -3.4054   -1.2721 N.pl3     1 <0>        -0.3783
     10 N3          0.3418   -3.9122   -1.9964 N.2       1 <0>        -0.2271
     11 C8          1.3836   -2.9098    0.1059 C.3       1 <0>         0.1831
     12 C9          1.0859   -1.4325    0.0993 C.ar      1 <0>        -0.1093
     13 C10        -0.2236   -0.9911    0.1441 C.ar      1 <0>        -0.0872
     14 C11        -0.4973    0.3637    0.1385 C.ar      1 <0>        -0.1102
     15 C12         0.5381    1.2781    0.0877 C.ar      1 <0>        -0.0992
     16 C13         1.8484    0.8371    0.0428 C.ar      1 <0>        -0.0385
     17 C14         2.1219   -0.5193    0.0489 C.ar      1 <0>        -0.0839
     18 Cl1         3.1493    1.9849   -0.0200 Cl        1 <0>        -0.0639
     19 C15         6.1111   -2.8783   -2.6047 C.ar      1 <0>        -0.1012
     20 C16         7.0701   -3.0428   -3.6039 C.ar      1 <0>        -0.0472
     21 C17         8.3765   -2.6688   -3.3717 C.ar      1 <0>        -0.2127
     22 C18         8.7402   -2.1389   -2.1406 C.ar      1 <0>         0.1500
     23 C19         7.7889   -1.9791   -1.1417 C.ar      1 <0>        -0.1588
     24 C20         6.4797   -2.3459   -1.3695 C.ar      1 <0>        -0.0288
     25 O1         10.0294   -1.7765   -1.9130 O.3       1 <0>        -0.3134
     26 C21        10.9559   -1.9680   -2.9840 C.3       1 <0>         0.0207
     27 C22         2.6447   -4.7513   -5.6617 C.3       1 <0>         0.2941
     28 F1          2.5889   -3.7298   -6.6159 F         1 <0>        -0.1932
     29 F2          3.5791   -5.7126   -6.0618 F         1 <0>        -0.1950
     30 H1          0.4574   -5.0380   -5.1647 H         1 <0>         0.0804
     31 H2         -0.9505   -4.1355   -4.5088 H         1 <0>         0.0928
     32 H3         -0.5841   -5.7883   -3.9081 H         1 <0>         0.0928
     33 H4          5.0977   -3.9283   -4.8685 H         1 <0>         0.1501
     34 H5          0.5961   -3.4400    0.6616 H         1 <0>         0.1116
     35 H6          2.3557   -3.0858    0.5897 H         1 <0>         0.1107
     36 H7         -1.0328   -1.7052    0.1839 H         1 <0>         0.1325
     37 H8         -1.5206    0.7078    0.1695 H         1 <0>         0.1359
     38 H9          0.3240    2.3367    0.0829 H         1 <0>         0.1357
     39 H10         3.1447   -0.8642    0.0138 H         1 <0>         0.1377
     40 H11         6.7887   -3.4590   -4.5599 H         1 <0>         0.1329
     41 H12         9.1188   -2.7921   -4.1464 H         1 <0>         0.1357
     42 H13         8.0749   -1.5667   -0.1853 H         1 <0>         0.1370
     43 H14         5.7403   -2.2214   -0.5922 H         1 <0>         0.1418
     44 H15        11.9557   -1.6358   -2.6677 H         1 <0>         0.1046
     45 H16        10.6336   -1.3813   -3.8569 H         1 <0>         0.0595
     46 H17        10.9915   -3.0343   -3.2518 H         1 <0>         0.0595
     47 H18         1.6586   -5.2385   -5.6433 H         1 <0>         0.1386
@<TRIPOS>BOND
     1    1    2 1
     2    1   30 1
     3    1   31 1
     4    1   32 1
     5    2   10 2
     6    2    3 1
     7    3    8 ar
     8    3    4 ar
     9    4    5 ar
    10    4   27 1
    11    5    6 ar
    12    5   33 1
    13    6    7 ar
    14    6   19 1
    15    7    8 ar
    16    8    9 1
    17    9   10 1
    18    9   11 1
    19   11   12 1
    20   11   34 1
    21   11   35 1
    22   12   17 ar
    23   12   13 ar
    24   13   14 ar
    25   13   36 1
    26   14   15 ar
    27   14   37 1
    28   15   16 ar
    29   15   38 1
    30   16   17 ar
    31   16   18 1
    32   17   39 1
    33   19   24 ar
    34   19   20 ar
    35   20   21 ar
    36   20   40 1
    37   21   22 ar
    38   21   41 1
    39   22   23 ar
    40   22   25 1
    41   23   24 ar
    42   23   42 1
    43   24   43 1
    44   25   26 1
    45   26   44 1
    46   26   45 1
    47   26   46 1
    48   27   28 1
    49   27   29 1
    50   27   47 1
@<TRIPOS>MOLECULE
ZINC33891126
   47    51     0     0     0
SMALL
USER_CHARGES

@<TRIPOS>ATOM
      1 C1          3.9823    1.5330   -4.1218 C.ar      1 <0>        -0.0833
      2 C2          3.8795    2.1851   -2.9056 C.ar      1 <0>        -0.1316
      3 C3          3.8305    1.4604   -1.7329 C.ar      1 <0>        -0.0565
      4 C4          3.8844    0.0659   -1.7750 C.ar      1 <0>        -0.1675
      5 C5          3.9878   -0.5857   -3.0055 C.ar      1 <0>        -0.0681
      6 C6          4.0363    0.1511   -4.1706 C.ar      1 <0>        -0.1311
      7 C7          3.8329   -0.7174   -0.5220 C.2       1 <0>         0.4582
      8 O1          3.8402   -0.1466    0.5535 O.2       1 <0>        -0.4205
      9 C8          3.7730   -2.1802   -0.5745 C.2       1 <0>        -0.1324
     10 C9          4.8280   -2.9363   -0.0812 C.2       1 <0>         0.0410
     11 C10         4.7121   -4.3327    0.0016 C.2       1 <0>        -0.0298
     12 C11         5.7194   -5.2130    0.3730 C.2       1 <0>        -0.1312
     13 C12         5.1742   -6.4944    0.3193 C.2       1 <0>        -0.1906
     14 C13         3.8607   -6.3587   -0.0802 C.2       1 <0>         0.0609
     15 O2          3.5998   -5.0523   -0.2606 O.3       1 <0>        -0.1351
     16 C14         2.9010   -7.4623   -0.2712 C.ar      1 <0>        -0.0271
     17 C15         3.2348   -8.5511   -1.0814 C.ar      1 <0>        -0.0764
     18 C16         2.3327   -9.5790   -1.2555 C.ar      1 <0>        -0.1153
     19 C17         1.0982   -9.5353   -0.6303 C.ar      1 <0>        -0.0900
     20 C18         0.7596   -8.4616    0.1733 C.ar      1 <0>        -0.1108
     21 C19         1.6546   -7.4272    0.3620 C.ar      1 <0>        -0.0136
     22 Cl1         1.2310   -6.0836    1.3765 Cl        1 <0>        -0.0436
     23 C20         2.5954   -2.8478   -1.1498 C.2       1 <0>         0.3009
     24 N1          1.3908   -2.8299   -0.6298 N.2       1 <0>        -0.4472
     25 C21         0.5605   -3.5482   -1.4284 C.ar      1 <0>         0.0315
     26 C22        -0.7997   -3.8625   -1.3703 C.ar      1 <0>        -0.0578
     27 C23        -1.3651   -4.6341   -2.3606 C.ar      1 <0>        -0.1202
     28 C24        -0.5930   -5.1010   -3.4141 C.ar      1 <0>        -0.0910
     29 C25         0.7517   -4.7985   -3.4846 C.ar      1 <0>        -0.0952
     30 C26         1.3382   -4.0228   -2.4973 C.ar      1 <0>         0.0168
     31 O3          2.5931   -3.5633   -2.2915 O.3       1 <0>        -0.2016
     32 H1          4.0162    2.1049   -5.0372 H         1 <0>         0.1299
     33 H2          3.8378    3.2638   -2.8745 H         1 <0>         0.1325
     34 H3          3.7509    1.9706   -0.7844 H         1 <0>         0.1366
     35 H4          4.0303   -1.6642   -3.0450 H         1 <0>         0.1282
     36 H5          4.1163   -0.3516   -5.1231 H         1 <0>         0.1303
     37 H6          5.7377   -2.4501    0.2387 H         1 <0>         0.1757
     38 H7          6.7308   -4.9545    0.6498 H         1 <0>         0.1658
     39 H8          5.6838   -7.4191    0.5468 H         1 <0>         0.1610
     40 H9          4.1972   -8.5869   -1.5703 H         1 <0>         0.1385
     41 H10         2.5896  -10.4207   -1.8816 H         1 <0>         0.1381
     42 H11         0.3959  -10.3436   -0.7710 H         1 <0>         0.1382
     43 H12        -0.2054   -8.4342    0.6575 H         1 <0>         0.1397
     44 H13        -1.4050   -3.5020   -0.5517 H         1 <0>         0.1343
     45 H14        -2.4164   -4.8777   -2.3167 H         1 <0>         0.1371
     46 H15        -1.0474   -5.7060   -4.1847 H         1 <0>         0.1397
     47 H16         1.3462   -5.1661   -4.3079 H         1 <0>         0.1327
@<TRIPOS>BOND
     1    1    6 ar
     2    1    2 ar
     3    1   32 1
     4    2    3 ar
     5    2   33 1
     6    3    4 ar
     7    3   34 1
     8    4    5 ar
     9    4    7 1
    10    5    6 ar
    11    5   35 1
    12    6   36 1
    13    7    8 2
    14    7    9 1
    15    9   10 2
    16    9   23 1
    17   10   11 1
    18   10   37 1
    19   11   15 1
    20   11   12 2
    21   12   13 1
    22   12   38 1
    23   13   14 2
    24   13   39 1
    25   14   15 1
    26   14   16 1
    27   16   21 ar
    28   16   17 ar
    29   17   18 ar
    30   17   40 1
    31   18   19 ar
    32   18   41 1
    33   19   20 ar
    34   19   42 1
    35   20   21 ar
    36   20   43 1
    37   21   22 1
    38   23   31 1
    39   23   24 2
    40   24   25 1
    41   25   30 ar
    42   25   26 ar
    43   26   27 ar
    44   26   44 1
    45   27   28 ar
    46   27   45 1
    47   28   29 ar
    48   28   46 1
    49   29   30 ar
    50   29   47 1
    51   30   31 1
@<TRIPOS>MOLECULE
ZINC41433152
   55    58     0     0     0
SMALL
USER_CHARGES

@<TRIPOS>ATOM
      1 C1          0.1446    1.4915    0.0153 C.3       1 <0>        -0.1223
      2 C2          0.1810   -0.0151    0.0096 C.ar      1 <0>        -0.0770
      3 C3          0.2113   -0.7013   -1.1902 C.ar      1 <0>        -0.1189
      4 C4          0.2447   -2.0830   -1.1954 C.ar      1 <0>        -0.1122
      5 C5          0.2482   -2.7789   -0.0008 C.ar      1 <0>        -0.1245
      6 C6          0.2188   -2.0929    1.1987 C.ar      1 <0>        -0.0940
      7 C7          0.1897   -0.7107    1.2040 C.ar      1 <0>        -0.0977
      8 C8          0.1630    0.0375    2.5119 C.3       1 <0>         0.0996
      9 O1          0.1782   -0.8951    3.5945 O.3       1 <0>        -0.2971
     10 C9          0.1574   -0.3814    4.8508 C.ar      1 <0>         0.2101
     11 C10         0.1764   -1.2391    5.9475 C.ar      1 <0>        -0.1924
     12 C11         0.1553   -0.7319    7.2158 C.ar      1 <0>         0.0652
     13 C12         0.1151    0.6491    7.4120 C.ar      1 <0>        -0.3035
     14 C13         0.0960    1.5239    6.3140 C.ar      1 <0>         0.1834
     15 C14         0.1232    0.9917    5.0305 C.ar      1 <0>        -0.2439
     16 O2          0.0575    2.8015    6.7505 O.3       1 <0>        -0.2080
     17 C15         0.0483    2.8712    8.1026 C.2       1 <0>        -0.0695
     18 C16         0.0126    4.0067    8.8473 C.2       1 <0>         0.0093
     19 C17         0.0956    5.3166    8.1919 C.ar      1 <0>        -0.1541
     20 C18         0.1942    6.4831    8.9624 C.ar      1 <0>        -0.0331
     21 C19         0.2717    7.7004    8.3477 C.ar      1 <0>        -0.2081
     22 C20         0.2523    7.7836    6.9576 C.ar      1 <0>         0.2381
     23 C21         0.1540    6.6272    6.1878 C.ar      1 <0>        -0.2103
     24 C22         0.0823    5.4050    6.7934 C.ar      1 <0>        -0.0374
     25 N1          0.3310    9.0257    6.3362 N.pl3     1 <0>        -0.6298
     26 C23         0.5468   10.2332    7.1372 C.3       1 <0>         0.0874
     27 C24         0.1982    9.1263    4.8807 C.3       1 <0>         0.0833
     28 C25         0.0847    1.4959    8.6183 C.2       1 <0>         0.4194
     29 O3          0.0884    1.1357    9.7830 O.2       1 <0>        -0.4304
     30 C26         0.1750   -1.6623    8.4012 C.3       1 <0>        -0.1275
     31 H1          1.1632    1.8795    0.0236 H         1 <0>         0.0748
     32 H2         -0.3719    1.8458   -0.8767 H         1 <0>         0.0717
     33 H3         -0.3837    1.8388    0.9032 H         1 <0>         0.0659
     34 H4          0.2086   -0.1577   -2.1234 H         1 <0>         0.1255
     35 H5          0.2677   -2.6191   -2.1327 H         1 <0>         0.1241
     36 H6          0.2735   -3.8586   -0.0049 H         1 <0>         0.1248
     37 H7          0.2212   -2.6365    2.1319 H         1 <0>         0.1324
     38 H8          1.0372    0.6851    2.5779 H         1 <0>         0.0819
     39 H9         -0.7422    0.6423    2.5660 H         1 <0>         0.0820
     40 H10         0.2076   -2.3078    5.7952 H         1 <0>         0.1451
     41 H11         0.1135    1.6484    4.1732 H         1 <0>         0.1427
     42 H12        -0.0770    3.9452    9.9218 H         1 <0>         0.1612
     43 H13         0.2086    6.4196   10.0404 H         1 <0>         0.1291
     44 H14         0.3478    8.5999    8.9406 H         1 <0>         0.1281
     45 H15         0.1389    6.6967    5.1101 H         1 <0>         0.1276
     46 H16         0.0109    4.5084    6.1954 H         1 <0>         0.1438
     47 H17         1.6166   10.4179    7.2352 H         1 <0>         0.0528
     48 H18         0.0747   11.0841    6.6462 H         1 <0>         0.0696
     49 H19         0.1097   10.0960    8.1263 H         1 <0>         0.0724
     50 H20         0.1347    8.1263    4.4517 H         1 <0>         0.0805
     51 H21        -0.7055    9.6846    4.6361 H         1 <0>         0.0568
     52 H22         1.0664    9.6429    4.4714 H         1 <0>         0.0597
     53 H23         1.2070   -1.8579    8.6925 H         1 <0>         0.0841
     54 H24        -0.3565   -1.2014    9.2337 H         1 <0>         0.0823
     55 H25        -0.3113   -2.6007    8.1346 H         1 <0>         0.0767
@<TRIPOS>BOND
     1    1    2 1
     2    1   31 1
     3    1   32 1
     4    1   33 1
     5    2    7 ar
     6    2    3 ar
     7    3    4 ar
     8    3   34 1
     9    4    5 ar
    10    4   35 1
    11    5    6 ar
    12    5   36 1
    13    6    7 ar
    14    6   37 1
    15    7    8 1
    16    8    9 1
    17    8   38 1
    18    8   39 1
    19    9   10 1
    20   10   15 ar
    21   10   11 ar
    22   11   12 ar
    23   11   40 1
    24   12   13 ar
    25   12   30 1
    26   13   28 1
    27   13   14 ar
    28   14   15 ar
    29   14   16 1
    30   15   41 1
    31   16   17 1
    32   17   18 2
    33   17   28 1
    34   18   19 1
    35   18   42 1
    36   19   24 ar
    37   19   20 ar
    38   20   21 ar
    39   20   43 1
    40   21   22 ar
    41   21   44 1
    42   22   23 ar
    43   22   25 1
    44   23   24 ar
    45   23   45 1
    46   24   46 1
    47   25   26 1
    48   25   27 1
    49   26   47 1
    50   26   48 1
    51   26   49 1
    52   27   50 1
    53   27   51 1
    54   27   52 1
    55   28   29 2
    56   30   53 1
    57   30   54 1
    58   30   55 1
@<TRIPOS>MOLECULE
ZINC13352707
   39    41     0     0     0
SMALL
USER_CHARGES
3,5,6-trichloro-4-[(N'E)-N'-(7-methyl-3,4-dihydro-2H-1-benzoxepin-5-ylidene)hydrazino]pyridine-2-carboxylic acid
@<TRIPOS>ATOM
      1 C1         -6.4913   -0.3624    3.5593 C.3       1 <0>        -0.1144
      2 C2         -6.2410    0.2336    2.1980 C.ar      1 <0>        -0.0951
      3 C3         -7.2213    0.1604    1.2232 C.ar      1 <0>        -0.0962
      4 C4         -7.0068    0.6975   -0.0186 C.ar      1 <0>        -0.1273
      5 C5         -5.8027    1.3124   -0.3097 C.ar      1 <0>         0.1131
      6 C6         -4.8111    1.3972    0.6675 C.ar      1 <0>        -0.0521
      7 C7         -5.0345    0.8496    1.9288 C.ar      1 <0>        -0.0727
      8 C8         -3.5372    2.0722    0.3442 C.2       1 <0>         0.1122
      9 N1         -2.4134    1.4219    0.3353 N.2       1 <0>        -0.1885
     10 N2         -1.2216    2.0872    0.0192 N.pl3     1 <0>        -0.5707
     11 C9         -0.0168    1.3900    0.0097 C.ar      1 <0>         0.2636
     12 C10         1.2034    2.0694    0.0017 C.ar      1 <0>        -0.1133
     13 C11         2.3845    1.3335   -0.0135 C.ar      1 <0>         0.1677
     14 N3          2.3545    0.0038   -0.0204 N.ar      1 <0>        -0.4286
     15 C12         1.2207   -0.6651   -0.0132 C.ar      1 <0>         0.2046
     16 C13         0.0021   -0.0041    0.0020 C.ar      1 <0>        -0.1207
     17 Cl1        -1.4836   -0.9021    0.0108 Cl        1 <0>        -0.0136
     18 Cl2         1.2519   -2.4008   -0.0222 Cl        1 <0>        -0.0174
     19 C14         3.6857    2.0368   -0.0217 C.2       1 <0>         0.4994
     20 O1          3.7199    3.2508   -0.0155 O.co2     1 <0>        -0.5936
     21 Cl3         1.2461    3.8049    0.0106 Cl        1 <0>        -0.0124
     22 C15        -3.5927    3.5504    0.0173 C.3       1 <0>        -0.1128
     23 C16        -4.0681    3.7480   -1.4076 C.3       1 <0>        -0.1486
     24 C17        -5.4884    3.2537   -1.6363 C.3       1 <0>         0.0680
     25 O2         -5.5723    1.8344   -1.5513 O.3       1 <0>        -0.3234
     26 H1         -6.9377    0.3904    4.2090 H         1 <0>         0.0710
     27 H2         -7.1700   -1.2101    3.4657 H         1 <0>         0.0677
     28 H3         -5.5471   -0.6986    3.9880 H         1 <0>         0.0688
     29 H4         -8.1623   -0.3208    1.4453 H         1 <0>         0.1289
     30 H5         -7.7787    0.6337   -0.7713 H         1 <0>         0.1327
     31 H6         -4.2706    0.9067    2.6901 H         1 <0>         0.1309
     32 H7         -1.2360    3.0336   -0.1930 H         1 <0>         0.3967
     33 H8         -4.2818    4.0464    0.7008 H         1 <0>         0.0902
     34 H9         -2.5985    3.9831    0.1287 H         1 <0>         0.0763
     35 H10        -4.0237    4.8103   -1.6478 H         1 <0>         0.0871
     36 H11        -3.3976    3.2110   -2.0786 H         1 <0>         0.0743
     37 H12        -6.1435    3.6942   -0.8847 H         1 <0>         0.0596
     38 H13        -5.8203    3.5708   -2.6249 H         1 <0>         0.1007
     39 O3          4.8328    1.3308   -0.0360 O.co2     1 <0>        -0.7124
@<TRIPOS>BOND
     1    1    2 1
     2    1   26 1
     3    1   27 1
     4    1   28 1
     5    2    7 ar
     6    2    3 ar
     7    3    4 ar
     8    3   29 1
     9    4    5 ar
    10    4   30 1
    11    5   25 1
    12    5    6 ar
    13    6    7 ar
    14    6    8 1
    15    7   31 1
    16    8    9 2
    17    8   22 1
    18    9   10 1
    19   10   11 1
    20   10   32 1
    21   11   16 ar
    22   11   12 ar
    23   12   13 ar
    24   12   21 1
    25   13   14 ar
    26   13   19 1
    27   14   15 ar
    28   15   16 ar
    29   15   18 1
    30   16   17 1
    31   19   20 2
    32   19   39 1
    33   22   23 1
    34   22   33 1
    35   22   34 1
    36   23   24 1
    37   23   35 1
    38   23   36 1
    39   24   25 1
    40   24   37 1
    41   24   38 1
@<TRIPOS>MOLECULE
ZINC28617365
   44    47     0     0     0
SMALL
USER_CHARGES
(2R,5Z)-5-benzylidene-3-(2,6-dichloro-4-nitro-phenyl)-2-phenyl-imidazolidin-4-one
@<TRIPOS>ATOM
      1 C1          2.9954   -9.3139   -1.4760 C.ar      1 <0>        -0.1797
      2 C2          3.2416   -8.0305   -1.9317 C.ar      1 <0>        -0.1201
      3 C3          2.8251   -6.9417   -1.1953 C.ar      1 <0>        -0.1213
      4 C4          2.1517   -7.1370    0.0149 C.ar      1 <0>         0.0503
      5 C5          1.9114   -8.4371    0.4711 C.ar      1 <0>        -0.1639
      6 C6          2.3297   -9.5155   -0.2795 C.ar      1 <0>        -0.1202
      7 C7          1.7038   -5.9808    0.8068 C.2       1 <0>        -0.3167
      8 C8          1.4561   -4.7988    0.1975 C.2       1 <0>         0.1367
      9 C9          1.1718   -3.5262    0.8729 C.2       1 <0>         0.5398
     10 O1          1.1216   -3.3665    2.0780 O.2       1 <0>        -0.5309
     11 N1          0.9723   -2.5651   -0.0467 N.am      1 <0>        -0.6004
     12 C10         1.1255   -3.1564   -1.3792 C.3       1 <0>         0.3275
     13 H1          1.9433   -2.6610   -1.9231 H         1 <0>         0.0633
     14 N2          1.4327   -4.5784   -1.1827 N.2       1 <0>        -0.6675
     15 C11        -0.1560   -3.0087   -2.1583 C.ar      1 <0>        -0.0784
     16 C12        -1.2860   -3.7028   -1.7681 C.ar      1 <0>        -0.0646
     17 C13        -2.4628   -3.5635   -2.4799 C.ar      1 <0>        -0.1301
     18 C14        -2.5069   -2.7380   -3.5878 C.ar      1 <0>        -0.1232
     19 C15        -1.3753   -2.0484   -3.9813 C.ar      1 <0>        -0.1301
     20 C16        -0.1999   -2.1835   -3.2664 C.ar      1 <0>        -0.1142
     21 C17         0.6746   -1.2249    0.2234 C.ar      1 <0>         0.2520
     22 C18        -0.6268   -0.8494    0.5337 C.ar      1 <0>        -0.0291
     23 C19        -0.9171    0.4755    0.8004 C.ar      1 <0>        -0.0388
     24 C20         0.0857    1.4267    0.7585 C.ar      1 <0>        -0.0331
     25 C21         1.3819    1.0568    0.4501 C.ar      1 <0>        -0.0391
     26 C22         1.6797   -0.2662    0.1823 C.ar      1 <0>        -0.0367
     27 Cl1         3.3075   -0.7295   -0.2043 Cl        1 <0>        -0.0102
     28 N3         -0.2292    2.8445    1.0447 N.pl3     1 <0>         0.0345
     29 O2         -1.3704    3.1720    1.3166 O.2       1 <0>        -0.1515
     30 O3          0.6529    3.6836    1.0083 O.3       1 <0>        -0.1517
     31 Cl2        -1.8865   -2.0428    0.5871 Cl        1 <0>        -0.0039
     32 H2          3.3248  -10.1627   -2.0570 H         1 <0>         0.0985
     33 H3          3.7617   -7.8814   -2.8664 H         1 <0>         0.1009
     34 H4          3.0186   -5.9408   -1.5519 H         1 <0>         0.1378
     35 H5          1.3963   -8.5959    1.4070 H         1 <0>         0.1043
     36 H6          2.1412  -10.5201    0.0695 H         1 <0>         0.1004
     37 H7          1.5703   -6.0776    1.8944 H         1 <0>         0.0990
     38 H8         -1.2504   -4.3509   -0.9049 H         1 <0>         0.1163
     39 H9         -3.3468   -4.1026   -2.1726 H         1 <0>         0.1129
     40 H10        -3.4253   -2.6321   -4.1461 H         1 <0>         0.1135
     41 H11        -1.4097   -1.4037   -4.8471 H         1 <0>         0.1140
     42 H12         0.6841   -1.6447   -3.5739 H         1 <0>         0.1128
     43 H13        -1.9291    0.7688    1.0373 H         1 <0>         0.1702
     44 H14         2.1625    1.8025    0.4184 H         1 <0>         0.1711
@<TRIPOS>BOND
     1    1    6 ar
     2    1    2 ar
     3    1   32 1
     4    2    3 ar
     5    2   33 1
     6    3    4 ar
     7    3   34 1
     8    4    5 ar
     9    4    7 1
    10    5    6 ar
    11    5   35 1
    12    6   36 1
    13    7    8 2
    14    7   37 1
    15    8   14 1
    16    8    9 1
    17    9   10 2
    18    9   11 am
    19   11   12 1
    20   11   21 1
    21   12   13 1
    22   12   14 1
    23   12   15 1
    24   15   20 ar
    25   15   16 ar
    26   16   17 ar
    27   16   38 1
    28   17   18 ar
    29   17   39 1
    30   18   19 ar
    31   18   40 1
    32   19   20 ar
    33   19   41 1
    34   20   42 1
    35   21   26 ar
    36   21   22 ar
    37   22   23 ar
    38   22   31 1
    39   23   24 ar
    40   23   43 1
    41   24   25 ar
    42   24   28 1
    43   25   26 ar
    44   25   44 1
    45   26   27 1
    46   28   29 2
    47   28   30 1
@<TRIPOS>MOLECULE
ZINC39870788
   47    49     0     0     0
SMALL
USER_CHARGES

@<TRIPOS>ATOM
      1 C1         -1.0175   -0.1877   -3.9406 C.3       1 <0>        -0.1264
      2 C2         -0.7374   -1.2532   -2.9123 C.2       1 <0>         0.1646
      3 C3         -1.5261   -2.3979   -2.8468 C.2       1 <0>        -0.2763
      4 C4         -1.2395   -3.3844   -1.8687 C.2       1 <0>         0.5726
      5 O1         -1.9249   -4.3898   -1.8042 O.2       1 <0>        -0.5385
      6 N1         -0.2157   -3.2176   -1.0121 N.am      1 <0>        -0.5282
      7 C5          0.5648   -2.1100   -1.0583 C.2       1 <0>         0.4901
      8 C6          0.3278   -1.1102   -2.0077 C.2       1 <0>        -0.1542
      9 N2          1.1205   -0.0038   -2.0511 N.2       1 <0>        -0.1459
     10 N3          2.0974    0.1228   -1.2182 N.2       1 <0>        -0.2909
     11 C7          2.8936    1.2341   -1.2617 C.ar      1 <0>         0.1578
     12 C8          2.6483    2.2370   -2.2034 C.ar      1 <0>        -0.1555
     13 C9          3.4552    3.3545   -2.2415 C.ar      1 <0>        -0.0834
     14 C10         4.5059    3.4843   -1.3500 C.ar      1 <0>        -0.1511
     15 C11         4.7548    2.4953   -0.4149 C.ar      1 <0>        -0.0673
     16 C12         3.9524    1.3745   -0.3613 C.ar      1 <0>        -0.1744
     17 C13         4.2209    0.3016    0.6623 C.3       1 <0>         0.5205
     18 F1          5.3231    0.6669    1.4426 F         1 <0>        -0.1971
     19 F2          3.0984    0.1491    1.4833 F         1 <0>        -0.1658
     20 F3          4.4903   -0.9070    0.0114 F         1 <0>        -0.1662
     21 O2          1.5821   -1.9736   -0.1854 O.3       1 <0>        -0.5600
     22 C14         0.0605   -4.2511   -0.0111 C.3       1 <0>         0.1691
     23 H1          0.8375   -3.9005    0.6682 H         1 <0>         0.1219
     24 C15         0.5331   -5.5264   -0.7118 C.3       1 <0>        -0.1544
     25 C16        -1.1951   -4.5426    0.7695 C.ar      1 <0>        -0.0703
     26 C17        -2.3151   -3.7507    0.5981 C.ar      1 <0>        -0.0813
     27 C18        -3.4669   -4.0181    1.3142 C.ar      1 <0>        -0.1212
     28 C19        -3.4988   -5.0777    2.2014 C.ar      1 <0>        -0.1281
     29 C20        -2.3792   -5.8702    2.3721 C.ar      1 <0>        -0.1261
     30 C21        -1.2287   -5.6054    1.6529 C.ar      1 <0>        -0.1136
     31 C22        -2.6164   -2.5779   -3.7574 C.1       1 <0>         0.3108
     32 N4         -3.4814   -2.7206   -4.4799 N.1       1 <0>        -0.4733
     33 H2         -0.4588   -0.4054   -4.8508 H         1 <0>         0.0861
     34 H3         -2.0841   -0.1702   -4.1643 H         1 <0>         0.0688
     35 H4         -0.7121    0.7831   -3.5503 H         1 <0>         0.0863
     36 H5          1.8289    2.1369   -2.8999 H         1 <0>         0.1372
     37 H6          3.2670    4.1303   -2.9690 H         1 <0>         0.1231
     38 H7          5.1349    4.3616   -1.3847 H         1 <0>         0.1254
     39 H8          5.5767    2.6031    0.2774 H         1 <0>         0.1337
     40 H9          1.3499   -5.2858   -1.3923 H         1 <0>         0.0598
     41 H10         0.8796   -6.2430    0.0328 H         1 <0>         0.0659
     42 H11        -0.2937   -5.9591   -1.2753 H         1 <0>         0.0737
     43 H12        -2.2902   -2.9228   -0.0950 H         1 <0>         0.1146
     44 H13        -4.3417   -3.3989    1.1808 H         1 <0>         0.1158
     45 H14        -4.3985   -5.2862    2.7613 H         1 <0>         0.1148
     46 H15        -2.4040   -6.6978    3.0655 H         1 <0>         0.1169
     47 H16        -0.3551   -6.2268    1.7835 H         1 <0>         0.1198
@<TRIPOS>BOND
     1    1    2 1
     2    1   33 1
     3    1   34 1
     4    1   35 1
     5    2    8 1
     6    2    3 2
     7    3    4 1
     8    3   31 1
     9    4    5 2
    10    4    6 am
    11    6    7 1
    12    6   22 1
    13    7    8 2
    14    7   21 1
    15    8    9 1
    16    9   10 2
    17   10   11 1
    18   11   16 ar
    19   11   12 ar
    20   12   13 ar
    21   12   36 1
    22   13   14 ar
    23   13   37 1
    24   14   15 ar
    25   14   38 1
    26   15   16 ar
    27   15   39 1
    28   16   17 1
    29   17   18 1
    30   17   19 1
    31   17   20 1
    32   22   23 1
    33   22   24 1
    34   22   25 1
    35   24   40 1
    36   24   41 1
    37   24   42 1
    38   25   30 ar
    39   25   26 ar
    40   26   27 ar
    41   26   43 1
    42   27   28 ar
    43   27   44 1
    44   28   29 ar
    45   28   45 1
    46   29   30 ar
    47   29   46 1
    48   30   47 1
    49   31   32 3
@<TRIPOS>MOLECULE
ZINC02420675
   45    48     0     0     0
SMALL
USER_CHARGES

@<TRIPOS>ATOM
      1 C1          0.9254    1.4365   -0.0302 C.3       1 <0>        -0.1064
      2 C2          0.6944   -0.0527   -0.0280 C.ar      1 <0>        -0.1245
      3 C3         -0.1284   -0.6218    0.9270 C.ar      1 <0>        -0.0970
      4 C4         -0.3419   -1.9860    0.9323 C.ar      1 <0>        -0.1613
      5 C5          0.2706   -2.7871   -0.0236 C.ar      1 <0>         0.1808
      6 C6          1.0960   -2.2122   -0.9814 C.ar      1 <0>        -0.1149
      7 C7          1.3011   -0.8462   -0.9840 C.ar      1 <0>        -0.0683
      8 C8          2.1919   -0.2209   -2.0263 C.3       1 <0>        -0.1119
      9 N1          0.0572   -4.1680   -0.0209 N.pl3     1 <0>        -0.6370
     10 C9         -0.0448   -4.8565   -1.2212 C.ar      1 <0>         0.3730
     11 C10        -0.1388   -6.2692   -1.2162 C.ar      1 <0>         0.4185
     12 N2         -0.1288   -6.9562   -0.0117 N.2       1 <0>        -1.0680
     13 S1         -0.2384   -8.6085    0.0000 S.o2      1 <0>         2.6686
     14 O1         -1.5322   -8.9332   -0.4898 O.2       1 <0>        -1.0025
     15 O2          0.9503   -9.0987   -0.6049 O.2       1 <0>        -1.0025
     16 C11        -0.1945   -9.1216    1.6851 C.2       1 <0>        -0.6818
     17 C12        -1.2232   -9.3055    2.5485 C.2       1 <0>        -0.0422
     18 C13        -0.9494   -9.7174    3.8392 C.2       1 <0>        -0.1813
     19 C14         0.3395   -9.9252    4.2035 C.2       1 <0>        -0.1667
     20 S2          1.2157   -9.5417    2.6960 S.3       1 <0>         0.1416
     21 N3         -0.2361   -6.9346   -2.3482 N.ar      1 <0>        -0.5678
     22 C15        -0.2462   -6.2699   -3.5133 C.ar      1 <0>         0.1182
     23 C16        -0.3496   -6.9568   -4.7334 C.ar      1 <0>        -0.1036
     24 C17        -0.3581   -6.2594   -5.9035 C.ar      1 <0>        -0.1151
     25 C18        -0.2651   -4.8702   -5.9085 C.ar      1 <0>        -0.1472
     26 C19        -0.1631   -4.1718   -4.7434 C.ar      1 <0>        -0.0732
     27 C20        -0.1522   -4.8577   -3.5183 C.ar      1 <0>         0.0425
     28 N4         -0.0590   -4.1917   -2.3579 N.ar      1 <0>        -0.4918
     29 H1          0.1699    1.9204   -0.6491 H         1 <0>         0.0622
     30 H2          0.8577    1.8162    0.9893 H         1 <0>         0.0589
     31 H3          1.9158    1.6499   -0.4324 H         1 <0>         0.0627
     32 H4         -0.6042    0.0014    1.6697 H         1 <0>         0.1172
     33 H5         -0.9840   -2.4299    1.6787 H         1 <0>         0.1202
     34 H6          1.5740   -2.8320   -1.7256 H         1 <0>         0.1303
     35 H7          3.2179   -0.1950   -1.6592 H         1 <0>         0.0651
     36 H8          2.1485   -0.8101   -2.9423 H         1 <0>         0.0658
     37 H9          1.8536    0.7948   -2.2313 H         1 <0>         0.0643
     38 H10        -0.0197   -4.6453    0.8200 H         1 <0>         0.4298
     39 H11        -2.2414   -9.1324    2.2327 H         1 <0>         0.1431
     40 H12        -1.7506   -9.8709    4.5470 H         1 <0>         0.1368
     41 H13         0.7338  -10.2440    5.1571 H         1 <0>         0.1886
     42 H14        -0.4217   -8.0343   -4.7442 H         1 <0>         0.1235
     43 H15        -0.4378   -6.7912   -6.8401 H         1 <0>         0.1167
     44 H16        -0.2735   -4.3391   -6.8489 H         1 <0>         0.1160
     45 H17        -0.0909   -3.0944   -4.7620 H         1 <0>         0.1205
@<TRIPOS>BOND
     1    1    2 1
     2    1   29 1
     3    1   30 1
     4    1   31 1
     5    2    7 ar
     6    2    3 ar
     7    3    4 ar
     8    3   32 1
     9    4    5 ar
    10    4   33 1
    11    5    6 ar
    12    5    9 1
    13    6    7 ar
    14    6   34 1
    15    7    8 1
    16    8   35 1
    17    8   36 1
    18    8   37 1
    19    9   10 1
    20    9   38 1
    21   10   28 ar
    22   10   11 ar
    23   11   12 1
    24   11   21 ar
    25   12   13 1
    26   13   14 2
    27   13   15 2
    28   13   16 1
    29   16   20 1
    30   16   17 2
    31   17   18 1
    32   17   39 1
    33   18   19 2
    34   18   40 1
    35   19   20 1
    36   19   41 1
    37   21   22 ar
    38   22   27 ar
    39   22   23 ar
    40   23   24 ar
    41   23   42 1
    42   24   25 ar
    43   24   43 1
    44   25   26 ar
    45   25   44 1
    46   26   27 ar
    47   26   45 1
    48   27   28 ar
@<TRIPOS>MOLECULE
ZINC28640860
   54    57     0     0     0
SMALL
USER_CHARGES

@<TRIPOS>ATOM
      1 C1          0.1372    1.6931    1.0519 C.ar      1 <0>        -0.1177
      2 C2          1.3232    2.2708    0.6389 C.ar      1 <0>        -0.1227
      3 C3          2.3943    1.4721    0.2841 C.ar      1 <0>        -0.0968
      4 C4          2.2795    0.0958    0.3427 C.ar      1 <0>        -0.0835
      5 C5          1.0938   -0.4819    0.7566 C.ar      1 <0>        -0.1070
      6 C6          0.0223    0.3167    1.1101 C.ar      1 <0>        -0.1200
      7 C7          3.4468   -0.7749   -0.0451 C.3       1 <0>         0.1008
      8 N1          4.2728   -1.0387    1.1358 N.2       1 <0>        -0.5039
      9 C8          4.3815   -2.2537    1.5974 C.2       1 <0>         0.4092
     10 N2          5.1005   -2.6953    2.6899 N.am      1 <0>        -0.5437
     11 C9          5.1014   -3.9752    3.0221 C.2       1 <0>         0.5496
     12 O1          5.7286   -4.3831    3.9817 O.2       1 <0>        -0.4542
     13 C10         4.3054   -4.8873    2.1750 C.2       1 <0>        -0.2133
     14 C11         4.1300   -6.2270    2.2829 C.2       1 <0>         0.0845
     15 C12         4.6348   -6.9418    3.4644 C.ar      1 <0>        -0.0863
     16 C13         4.4808   -6.3876    4.7403 C.ar      1 <0>        -0.0699
     17 C14         4.9555   -7.0621    5.8451 C.ar      1 <0>        -0.1138
     18 C15         5.5840   -8.2857    5.6975 C.ar      1 <0>        -0.1176
     19 C16         5.7420   -8.8447    4.4362 C.ar      1 <0>         0.1468
     20 C17         5.2657   -8.1811    3.3191 C.ar      1 <0>        -0.0966
     21 O2          6.3607  -10.0475    4.2992 O.3       1 <0>        -0.3668
     22 C18         7.6308  -10.0572    3.8617 C.2       1 <0>         0.6017
     23 O3          8.1656   -9.0144    3.5147 O.co2     1 <0>        -0.6829
     24 O4          8.2515  -11.1088    3.8106 O.co2     1 <0>        -0.6505
     25 S1          3.6304   -3.7487    0.9745 S.3       1 <0>        -0.0838
     26 C19         5.8698   -1.7376    3.4880 C.3       1 <0>         0.1451
     27 C20         7.3489   -2.1284    3.4675 C.3       1 <0>        -0.1385
     28 C21         8.1523   -1.1282    4.3011 C.3       1 <0>        -0.1104
     29 C22         7.6417   -1.1399    5.7433 C.3       1 <0>        -0.1227
     30 C23         6.1626   -0.7490    5.7639 C.3       1 <0>        -0.1100
     31 C24         5.3592   -1.7492    4.9303 C.3       1 <0>        -0.1353
     32 H1         -0.6981    2.3171    1.3334 H         1 <0>         0.1211
     33 H2          1.4129    3.3461    0.5931 H         1 <0>         0.1223
     34 H3          3.3206    1.9235   -0.0393 H         1 <0>         0.1237
     35 H4          1.0040   -1.5572    0.8021 H         1 <0>         0.1218
     36 H5         -0.9042   -0.1346    1.4331 H         1 <0>         0.1228
     37 H6          3.0783   -1.7179   -0.4488 H         1 <0>         0.0639
     38 H7          4.0450   -0.2653   -0.8004 H         1 <0>         0.1025
     39 H8          3.6194   -6.7694    1.5009 H         1 <0>         0.1514
     40 H9          3.9910   -5.4324    4.8593 H         1 <0>         0.1153
     41 H10         4.8366   -6.6336    6.8293 H         1 <0>         0.1227
     42 H11         5.9537   -8.8084    6.5673 H         1 <0>         0.1245
     43 H12         5.3845   -8.6171    2.3382 H         1 <0>         0.1257
     44 H13         5.7522   -0.7382    3.0691 H         1 <0>         0.1063
     45 H14         7.4664   -3.1278    3.8865 H         1 <0>         0.0902
     46 H15         7.7127   -2.1201    2.4400 H         1 <0>         0.0620
     47 H16         9.2061   -1.4067    4.2865 H         1 <0>         0.0673
     48 H17         8.0348   -0.1288    3.8821 H         1 <0>         0.0607
     49 H18         7.7592   -2.1392    6.1623 H         1 <0>         0.0678
     50 H19         8.2141   -0.4273    6.3372 H         1 <0>         0.0623
     51 H20         5.7988   -0.7573    6.7913 H         1 <0>         0.0658
     52 H21         6.0450    0.2504    5.3449 H         1 <0>         0.0609
     53 H22         4.3054   -1.4708    4.9449 H         1 <0>         0.0608
     54 H23         5.4767   -2.7486    5.3492 H         1 <0>         0.0882
@<TRIPOS>BOND
     1    1    6 ar
     2    1    2 ar
     3    1   32 1
     4    2    3 ar
     5    2   33 1
     6    3    4 ar
     7    3   34 1
     8    4    5 ar
     9    4    7 1
    10    5    6 ar
    11    5   35 1
    12    6   36 1
    13    7    8 1
    14    7   37 1
    15    7   38 1
    16    8    9 2
    17    9   25 1
    18    9   10 1
    19   10   11 am
    20   10   26 1
    21   11   12 2
    22   11   13 1
    23   13   14 2
    24   13   25 1
    25   14   15 1
    26   14   39 1
    27   15   20 ar
    28   15   16 ar
    29   16   17 ar
    30   16   40 1
    31   17   18 ar
    32   17   41 1
    33   18   19 ar
    34   18   42 1
    35   19   20 ar
    36   19   21 1
    37   20   43 1
    38   21   22 1
    39   22   23 2
    40   22   24 1
    41   26   31 1
    42   26   27 1
    43   26   44 1
    44   27   28 1
    45   27   45 1
    46   27   46 1
    47   28   29 1
    48   28   47 1
    49   28   48 1
    50   29   30 1
    51   29   49 1
    52   29   50 1
    53   30   31 1
    54   30   51 1
    55   30   52 1
    56   31   53 1
    57   31   54 1
@<TRIPOS>MOLECULE
ZINC12548338
   49    52     0     0     0
SMALL
USER_CHARGES
3-(4-fluorophenyl)-N-[(2R)-2-(2-furyl)-2-pyrrolidin-1-yl-ethyl]imidazole-4-carboxamide
@<TRIPOS>ATOM
      1 C1         -1.7207   -2.3776   -0.5664 C.2       1 <0>        -0.2125
      2 C2         -0.9375   -1.3608   -1.1594 C.2       1 <0>        -0.1231
      3 C3         -1.6174   -0.2095   -1.0124 C.2       1 <0>        -0.1050
      4 O1         -2.7681   -0.4749   -0.3728 O.3       1 <0>        -0.1778
      5 C4         -2.8361   -1.7882   -0.0998 C.2       1 <0>         0.0118
      6 C5         -1.1672    1.1470   -1.4901 C.3       1 <0>         0.1325
      7 H1         -0.1112    1.1062   -1.7571 H         1 <0>         0.1702
      8 C6         -1.9877    1.5542   -2.7156 C.3       1 <0>         0.1038
      9 N1         -1.6340    2.9207   -3.1080 N.am      1 <0>        -0.7434
     10 C7         -2.2348    3.4939   -4.1696 C.2       1 <0>         0.6032
     11 O2         -3.1347    2.9125   -4.7466 O.2       1 <0>        -0.5052
     12 C8         -1.8040    4.8186   -4.6294 C.2       1 <0>        -0.1025
     13 C9         -0.8838    5.6347   -4.0323 C.2       1 <0>         0.0521
     14 N2         -0.7835    6.7428   -4.7666 N.2       1 <0>        -0.4848
     15 C10        -1.5913    6.6672   -5.7935 C.2       1 <0>         0.2398
     16 N3         -2.2431    5.4887   -5.7569 N.pl3     1 <0>        -0.3745
     17 C11        -3.1897    5.0302   -6.6836 C.ar      1 <0>         0.0836
     18 C12        -2.9960    3.8186   -7.3334 C.ar      1 <0>        -0.0449
     19 C13        -3.9320    3.3663   -8.2425 C.ar      1 <0>        -0.1401
     20 C14        -5.0583    4.1251   -8.5136 C.ar      1 <0>         0.1242
     21 C15        -5.2507    5.3363   -7.8704 C.ar      1 <0>        -0.1411
     22 C16        -4.3193    5.7898   -6.9571 C.ar      1 <0>        -0.0734
     23 F1         -5.9704    3.6834   -9.4071 F         1 <0>        -0.1270
     24 C17        -0.8387    1.6263    0.8745 C.3       1 <0>        -0.0087
     25 C18        -1.5652    2.4651    1.9478 C.3       1 <0>        -0.1452
     26 C19        -2.8642    2.9480    1.2632 C.3       1 <0>        -0.1443
     27 C20        -2.8095    2.3598   -0.1630 C.3       1 <0>        -0.0193
     28 H2         -1.4726   -3.4269   -0.5034 H         1 <0>         0.1654
     29 H3          0.0234   -1.4844   -1.6367 H         1 <0>         0.1639
     30 H4         -3.6488   -2.2865    0.4078 H         1 <0>         0.2194
     31 H5         -1.7736    0.8728   -3.5390 H         1 <0>         0.1203
     32 H6         -3.0495    1.5091   -2.4734 H         1 <0>         0.1024
     33 H7         -0.9674    3.4129   -2.6038 H         1 <0>         0.3968
     34 H8         -0.3358    5.4198   -3.1268 H         1 <0>         0.1780
     35 H9         -1.7123    7.4262   -6.5522 H         1 <0>         0.2220
     36 H10        -2.1155    3.2287   -7.1255 H         1 <0>         0.1333
     37 H11        -3.7836    2.4221   -8.7454 H         1 <0>         0.1480
     38 H12        -6.1295    5.9269   -8.0834 H         1 <0>         0.1511
     39 H13        -4.4693    6.7347   -6.4562 H         1 <0>         0.1428
     40 H14        -1.0763    0.5691    0.9931 H         1 <0>         0.1335
     41 H15         0.2384    1.7821    0.9349 H         1 <0>         0.1405
     42 H16        -1.7991    1.8487    2.8157 H         1 <0>         0.1106
     43 H17        -0.9519    3.3170    2.2416 H         1 <0>         0.1017
     44 H18        -2.8881    4.0370    1.2230 H         1 <0>         0.1005
     45 H19        -3.7372    2.5702    1.7954 H         1 <0>         0.1108
     46 H20        -3.2166    3.0698   -0.8829 H         1 <0>         0.1356
     47 H21        -3.3558    1.4177   -0.2089 H         1 <0>         0.1425
     48 N4         -1.3832    2.1374   -0.3886 N.4       1 <0>        -0.3947
     49 H22        -0.9253    3.0223   -0.6364 H         1 <0>         0.4272
@<TRIPOS>BOND
     1    1    5 2
     2    1    2 1
     3    1   28 1
     4    2    3 2
     5    2   29 1
     6    3    4 1
     7    3    6 1
     8    4    5 1
     9    5   30 1
    10    6    7 1
    11    6    8 1
    12    6   48 1
    13    8    9 1
    14    8   31 1
    15    8   32 1
    16    9   10 am
    17    9   33 1
    18   10   11 2
    19   10   12 1
    20   12   16 1
    21   12   13 2
    22   13   14 1
    23   13   34 1
    24   14   15 2
    25   15   16 1
    26   15   35 1
    27   16   17 1
    28   17   22 ar
    29   17   18 ar
    30   18   19 ar
    31   18   36 1
    32   19   20 ar
    33   19   37 1
    34   20   21 ar
    35   20   23 1
    36   21   22 ar
    37   21   38 1
    38   22   39 1
    39   24   25 1
    40   24   40 1
    41   24   41 1
    42   24   48 1
    43   25   26 1
    44   25   42 1
    45   25   43 1
    46   26   27 1
    47   26   44 1
    48   26   45 1
    49   27   46 1
    50   27   47 1
    51   27   48 1
    52   48   49 1
@<TRIPOS>MOLECULE
ZINC43525864
   62    65     0     0     0
SMALL
USER_CHARGES

@<TRIPOS>ATOM
      1 C1         -2.0559    0.4045   -0.3172 C.3       1 <0>         0.0907
      2 N1         -0.8920   -0.4676   -0.1416 N.pl3     1 <0>        -0.3584
      3 C2          0.0078   -0.7920   -1.0936 C.2       1 <0>         0.0692
      4 C3          0.9239   -1.6145   -0.5321 C.2       1 <0>        -0.2636
      5 C4          0.5719   -1.7991    0.8090 C.2       1 <0>         0.0946
      6 N2         -0.5131   -1.1073    1.0457 N.2       1 <0>        -0.2721
      7 C5          1.3174   -2.6435    1.8101 C.3       1 <0>        -0.0129
      8 C6          2.8192   -2.5607    1.5292 C.3       1 <0>        -0.1034
      9 C7          3.5761   -3.4180    2.5456 C.3       1 <0>        -0.1228
     10 C8          3.1150   -4.8723    2.4300 C.3       1 <0>        -0.1214
     11 C9          1.6133   -4.9551    2.7109 C.3       1 <0>        -0.1225
     12 C10         0.8564   -4.0978    1.6945 C.3       1 <0>        -0.1040
     13 C11        -0.0055   -0.3226   -2.5255 C.3       1 <0>        -0.0333
     14 H1         -0.5325    0.6291   -2.5931 H         1 <0>         0.1184
     15 C12         1.4318   -0.1492   -3.0217 C.3       1 <0>        -0.0006
     16 N3          1.6763   -1.0284   -4.1676 N.4       1 <0>        -0.3744
     17 C13         1.5108   -2.4326   -3.7847 C.3       1 <0>        -0.0149
     18 C14         0.0762   -2.6818   -3.3137 C.3       1 <0>        -0.1424
     19 C15        -0.7122   -1.3651   -3.4018 C.3       1 <0>        -0.0890
     20 H2         -1.7374   -1.5117   -3.0618 H         1 <0>         0.1210
     21 C16        -0.6774   -0.8783   -4.8564 C.3       1 <0>        -0.1277
     22 C17         0.7842   -0.6879   -5.2784 C.3       1 <0>         0.0186
     23 H3          0.9441    0.3514   -5.5652 H         1 <0>         0.1482
     24 C18         1.0911   -1.5944   -6.4721 C.3       1 <0>         0.0985
     25 N4          2.5127   -1.4917   -6.8106 N.am      1 <0>        -0.7557
     26 C19         3.0145   -2.2068   -7.8368 C.2       1 <0>         0.5190
     27 O1          2.2892   -2.9354   -8.4802 O.2       1 <0>        -0.4871
     28 C20         4.4770   -2.1012   -8.1849 C.3       1 <0>         0.0420
     29 O2          4.7636   -2.9478   -9.2999 O.3       1 <0>        -0.3661
     30 C21         6.1313   -2.9216   -9.7131 C.3       1 <0>         0.0283
     31 H4         -1.7731    1.4353   -0.1039 H         1 <0>         0.0822
     32 H5         -2.4134    0.3310   -1.3443 H         1 <0>         0.0870
     33 H6         -2.8474    0.0961    0.3659 H         1 <0>         0.0987
     34 H7          1.7760   -2.0517   -1.0313 H         1 <0>         0.1419
     35 H8          1.1153   -2.2772    2.8166 H         1 <0>         0.0889
     36 H9          3.0213   -2.9271    0.5227 H         1 <0>         0.0613
     37 H10         3.1476   -1.5247    1.6116 H         1 <0>         0.0636
     38 H11         4.6459   -3.3590    2.3455 H         1 <0>         0.0664
     39 H12         3.3739   -3.0517    3.5521 H         1 <0>         0.0664
     40 H13         3.3172   -5.2387    1.4235 H         1 <0>         0.0607
     41 H14         3.6543   -5.4831    3.1541 H         1 <0>         0.0658
     42 H15         1.2849   -5.9912    2.6285 H         1 <0>         0.0672
     43 H16         1.4112   -4.5888    3.7173 H         1 <0>         0.0662
     44 H17        -0.2135   -4.1568    1.8945 H         1 <0>         0.0644
     45 H18         1.0585   -4.4642    0.6880 H         1 <0>         0.0622
     46 H19         1.5885    0.8871   -3.3210 H         1 <0>         0.1399
     47 H20         2.1245   -0.4007   -2.2186 H         1 <0>         0.1431
     48 H21         1.7254   -3.0692   -4.6430 H         1 <0>         0.1338
     49 H22         2.2031   -2.6713   -2.9773 H         1 <0>         0.1332
     50 H23        -0.3927   -3.4310   -3.9516 H         1 <0>         0.1038
     51 H24         0.0863   -3.0324   -2.2817 H         1 <0>         0.1106
     52 H25        -1.1516   -1.6185   -5.5009 H         1 <0>         0.1122
     53 H26        -1.2066    0.0713   -4.9366 H         1 <0>         0.1097
     54 H27         0.8523   -2.6265   -6.2155 H         1 <0>         0.0987
     55 H28         0.4907   -1.2845   -7.3275 H         1 <0>         0.1164
     56 H29         3.0929   -0.9089   -6.2960 H         1 <0>         0.3942
     57 H30         4.7157   -1.0691   -8.4416 H         1 <0>         0.0861
     58 H31         5.0774   -2.4110   -7.3296 H         1 <0>         0.0837
     59 H32         6.2668   -3.5898  -10.5635 H         1 <0>         0.0992
     60 H33         6.4044   -1.9065  -10.0015 H         1 <0>         0.0489
     61 H34         6.7660   -3.2485   -8.8895 H         1 <0>         0.0482
     62 H35         2.6293   -0.8983   -4.4722 H         1 <0>         0.4193
@<TRIPOS>BOND
     1    1    2 1
     2    1   31 1
     3    1   32 1
     4    1   33 1
     5    2    6 1
     6    2    3 1
     7    3    4 2
     8    3   13 1
     9    4    5 1
    10    4   34 1
    11    5    6 2
    12    5    7 1
    13    7   12 1
    14    7    8 1
    15    7   35 1
    16    8    9 1
    17    8   36 1
    18    8   37 1
    19    9   10 1
    20    9   38 1
    21    9   39 1
    22   10   11 1
    23   10   40 1
    24   10   41 1
    25   11   12 1
    26   11   42 1
    27   11   43 1
    28   12   44 1
    29   12   45 1
    30   13   14 1
    31   13   19 1
    32   13   15 1
    33   15   16 1
    34   15   46 1
    35   15   47 1
    36   16   22 1
    37   16   17 1
    38   16   62 1
    39   17   18 1
    40   17   48 1
    41   17   49 1
    42   18   19 1
    43   18   50 1
    44   18   51 1
    45   19   20 1
    46   19   21 1
    47   21   22 1
    48   21   52 1
    49   21   53 1
    50   22   23 1
    51   22   24 1
    52   24   25 1
    53   24   54 1
    54   24   55 1
    55   25   26 am
    56   25   56 1
    57   26   27 2
    58   26   28 1
    59   28   29 1
    60   28   57 1
    61   28   58 1
    62   29   30 1
    63   30   59 1
    64   30   60 1
    65   30   61 1
@<TRIPOS>MOLECULE
ZINC60666022
   50    53     0     0     0
SMALL
USER_CHARGES

@<TRIPOS>ATOM
      1 C1         -0.0165    1.3620    0.0095 C.ar      1 <0>        -0.1248
      2 C2          1.1672    2.0858    0.0021 C.ar      1 <0>        -0.0917
      3 C3          2.3839    1.4361   -0.0129 C.ar      1 <0>        -0.1156
      4 C4          2.4230    0.0491   -0.0207 C.ar      1 <0>         0.0606
      5 C5          1.2237   -0.6844   -0.0132 C.ar      1 <0>         0.0533
      6 C6          0.0021   -0.0041    0.0020 C.ar      1 <0>        -0.0568
      7 N1          1.5576   -1.9986   -0.0234 N.2       1 <0>        -0.4675
      8 C7          2.8635   -2.1215   -0.0365 C.2       1 <0>         0.3612
      9 N2          3.4451   -0.8817   -0.0354 N.pl3     1 <0>        -0.4662
     10 C8          4.8817   -0.5952   -0.0480 C.3       1 <0>         0.0973
     11 C9          5.3882   -0.5041    1.3684 C.2       1 <0>         0.5127
     12 O1          4.6244   -0.6629    2.2969 O.2       1 <0>        -0.5049
     13 N3          6.6901   -0.2463    1.6033 N.am      1 <0>        -0.7317
     14 C10         7.1825   -0.1578    2.9802 C.3       1 <0>         0.0979
     15 C11         8.6829    0.1414    2.9671 C.3       1 <0>        -0.0208
     16 N4          9.1766    0.2301    4.3478 N.4       1 <0>        -0.3790
     17 C12         8.5495    1.3759    5.0174 C.3       1 <0>        -0.0151
     18 C13         8.9982    1.4253    6.4795 C.3       1 <0>        -0.1459
     19 C14        10.5216    1.5704    6.5356 C.3       1 <0>        -0.1398
     20 C15        11.1637    0.4096    5.7704 C.3       1 <0>        -0.1464
     21 C16        10.6348    0.3979    4.3345 C.3       1 <0>        -0.0056
     22 C17         3.5961   -3.4035   -0.0508 C.2       1 <0>         0.1052
     23 C18         2.9426   -4.6107   -0.0573 C.2       1 <0>        -0.1573
     24 S1          4.3292   -5.7353   -0.0743 S.3       1 <0>         0.1631
     25 C19         5.5620   -4.5904   -0.0715 C.2       1 <0>         0.0228
     26 N5          4.9227   -3.4516   -0.0636 N.2       1 <0>        -0.5198
     27 H1         -0.9619    1.8837    0.0259 H         1 <0>         0.1348
     28 H2          1.1358    3.1653    0.0078 H         1 <0>         0.1332
     29 H3          3.3022    2.0046   -0.0190 H         1 <0>         0.1176
     30 H4         -0.9253   -0.5576    0.0082 H         1 <0>         0.1345
     31 H5          5.4070   -1.3943   -0.5711 H         1 <0>         0.1467
     32 H6          5.0590    0.3513   -0.5588 H         1 <0>         0.1173
     33 H7          7.3010   -0.1193    0.8606 H         1 <0>         0.4092
     34 H8          6.6572    0.6414    3.5033 H         1 <0>         0.0890
     35 H9          7.0052   -1.1042    3.4910 H         1 <0>         0.0882
     36 H10         9.2081   -0.6577    2.4440 H         1 <0>         0.1392
     37 H11         8.8602    1.0878    2.4563 H         1 <0>         0.1376
     38 H12         8.8465    2.2967    4.5154 H         1 <0>         0.1311
     39 H13         7.4652    1.2729    4.9738 H         1 <0>         0.1318
     40 H14         8.5329    2.2777    6.9744 H         1 <0>         0.1138
     41 H15         8.7014    0.5050    6.9825 H         1 <0>         0.0888
     42 H16        10.8149    2.5152    6.0779 H         1 <0>         0.0824
     43 H17        10.8518    1.5492    7.5742 H         1 <0>         0.0955
     44 H18        12.2462    0.5360    5.7585 H         1 <0>         0.1140
     45 H19        10.9118   -0.5318    6.2587 H         1 <0>         0.0885
     46 H20        11.0900   -0.4273    3.7868 H         1 <0>         0.1315
     47 H21        10.8873    1.3395    3.8471 H         1 <0>         0.1300
     48 H22         1.8834   -4.8217   -0.0527 H         1 <0>         0.2120
     49 H23         6.6290   -4.7575   -0.0788 H         1 <0>         0.2233
     50 H24         8.9410   -0.6167    4.8432 H         1 <0>         0.4250
@<TRIPOS>BOND
     1    1    6 ar
     2    1    2 ar
     3    1   27 1
     4    2    3 ar
     5    2   28 1
     6    3    4 ar
     7    3   29 1
     8    4    9 1
     9    4    5 ar
    10    5    6 ar
    11    5    7 1
    12    6   30 1
    13    7    8 2
    14    8    9 1
    15    8   22 1
    16    9   10 1
    17   10   11 1
    18   10   31 1
    19   10   32 1
    20   11   12 2
    21   11   13 am
    22   13   14 1
    23   13   33 1
    24   14   15 1
    25   14   34 1
    26   14   35 1
    27   15   16 1
    28   15   36 1
    29   15   37 1
    30   16   21 1
    31   16   17 1
    32   16   50 1
    33   17   18 1
    34   17   38 1
    35   17   39 1
    36   18   19 1
    37   18   40 1
    38   18   41 1
    39   19   20 1
    40   19   42 1
    41   19   43 1
    42   20   21 1
    43   20   44 1
    44   20   45 1
    45   21   46 1
    46   21   47 1
    47   22   26 1
    48   22   23 2
    49   23   24 1
    50   23   48 1
    51   24   25 1
    52   25   26 2
    53   25   49 1
@<TRIPOS>MOLECULE
ZINC65446677
   51    54     0     0     0
SMALL
USER_CHARGES

@<TRIPOS>ATOM
      1 C1          0.0230    2.0891    0.2295 C.ar      1 <0>        -0.1244
      2 C2          1.3161    2.5951    0.2554 C.ar      1 <0>         0.0266
      3 C3          2.3688    1.7284    0.0246 C.ar      1 <0>        -0.1065
      4 C4          2.0983    0.3865   -0.2242 C.ar      1 <0>         0.4251
      5 N1          0.8511   -0.0577   -0.2405 N.ar      1 <0>        -0.4613
      6 C5         -0.1726    0.7465   -0.0237 C.ar      1 <0>         0.1432
      7 N2          3.1467   -0.4957   -0.4582 N.pl3     1 <0>        -0.6740
      8 C6          3.7322   -1.2841    0.6377 C.3       1 <0>         0.0968
      9 C7          3.7794   -2.7538    0.2044 C.3       1 <0>         0.0440
     10 O1          4.4303   -2.8497   -1.0648 O.3       1 <0>        -0.3639
     11 C8          3.7521   -2.1688   -2.1233 C.3       1 <0>         0.0447
     12 C9          3.6998   -0.6733   -1.8102 C.3       1 <0>         0.1001
     13 C10         3.7896    2.2307    0.0420 C.3       1 <0>         0.1850
     14 N3          4.2778    2.3621   -1.3330 N.am      1 <0>        -0.7475
     15 C11         5.5320    2.7982   -1.5639 C.2       1 <0>         0.7157
     16 O2          6.2881    2.9958   -0.6325 O.2       1 <0>        -0.5664
     17 N4          5.9481    3.0152   -2.8274 N.am      1 <0>        -0.5886
     18 C12         7.2688    3.5996   -3.0735 C.3       1 <0>         0.1852
     19 C13         8.3098    2.5100   -3.0647 C.2       1 <0>        -0.1422
     20 C14         8.9417    2.1531   -1.8883 C.2       1 <0>        -0.1382
     21 C15         9.8735    1.1689   -1.9151 C.2       1 <0>        -0.1737
     22 S1          9.8800    0.7134   -3.6412 S.3       1 <0>         0.0410
     23 C16         8.6365    1.8615   -4.2093 C.2       1 <0>        -0.1649
     24 C17         5.0797    2.6666   -3.9546 C.3       1 <0>         0.0612
     25 C18         5.6502    2.8351   -5.3643 C.3       1 <0>        -0.1775
     26 C19         4.5885    3.8080   -4.8472 C.3       1 <0>        -0.1884
     27 H1         -0.8206    2.7387    0.4101 H         1 <0>         0.1917
     28 H2          1.4955    3.6420    0.4509 H         1 <0>         0.1822
     29 H3         -1.1765    0.3487   -0.0444 H         1 <0>         0.2119
     30 H4          4.7420   -0.9302    0.8458 H         1 <0>         0.0933
     31 H5          3.1163   -1.1844    1.5314 H         1 <0>         0.0895
     32 H6          4.3337   -3.3334    0.9426 H         1 <0>         0.1178
     33 H7          2.7642   -3.1421    0.1232 H         1 <0>         0.0553
     34 H8          4.2868   -2.3275   -3.0597 H         1 <0>         0.1165
     35 H9          2.7368   -2.5550   -2.2129 H         1 <0>         0.0552
     36 H10         3.0624   -0.1693   -2.5367 H         1 <0>         0.0832
     37 H11         4.7062   -0.2568   -1.8527 H         1 <0>         0.0910
     38 H12         3.8255    3.2023    0.5347 H         1 <0>         0.0983
     39 H13         4.4180    1.5246    0.5847 H         1 <0>         0.0963
     40 H14         3.6985    2.1353   -2.0772 H         1 <0>         0.3931
     41 H15         7.2711    4.0966   -4.0436 H         1 <0>         0.0916
     42 H16         7.4961    4.3255   -2.2928 H         1 <0>         0.0930
     43 H17         8.6970    2.6511   -0.9618 H         1 <0>         0.1412
     44 H18        10.4600    0.7654   -1.1029 H         1 <0>         0.1847
     45 H19         8.2465    2.0033   -5.2064 H         1 <0>         0.1826
     46 H20         4.3988    1.8329   -3.7832 H         1 <0>         0.1156
     47 H21         6.6715    3.2054   -5.4530 H         1 <0>         0.1070
     48 H22         5.3446    2.1122   -6.1206 H         1 <0>         0.1090
     49 H23         3.5845    3.7251   -5.2634 H         1 <0>         0.1038
     50 H24         4.9114    4.8183   -4.5958 H         1 <0>         0.1025
     51 H25         0.6858   -0.9971   -0.4163 H         1 <0>         0.4428
@<TRIPOS>BOND
     1    1    6 ar
     2    1    2 ar
     3    1   27 1
     4    2    3 ar
     5    2   28 1
     6    3    4 ar
     7    3   13 1
     8    4    5 ar
     9    4    7 1
    10    5    6 ar
    11    5   51 1
    12    6   29 1
    13    7   12 1
    14    7    8 1
    15    8    9 1
    16    8   30 1
    17    8   31 1
    18    9   10 1
    19    9   32 1
    20    9   33 1
    21   10   11 1
    22   11   12 1
    23   11   34 1
    24   11   35 1
    25   12   36 1
    26   12   37 1
    27   13   14 1
    28   13   38 1
    29   13   39 1
    30   14   15 am
    31   14   40 1
    32   15   16 2
    33   15   17 am
    34   17   18 1
    35   17   24 1
    36   18   19 1
    37   18   41 1
    38   18   42 1
    39   19   23 2
    40   19   20 1
    41   20   21 2
    42   20   43 1
    43   21   22 1
    44   21   44 1
    45   22   23 1
    46   23   45 1
    47   24   26 1
    48   24   25 1
    49   24   46 1
    50   25   26 1
    51   25   47 1
    52   25   48 1
    53   26   49 1
    54   26   50 1
