@<TRIPOS>MOLECULE
1MV9-HXA
 63 62 0 0 0
SMALL
SF_CHARGES


@<TRIPOS>ATOM
1    C        54.7120   45.0300   30.2150  C.2        1 SUBUNIT      0.7681
2    O        53.9310   46.1170   30.1250  O.co2      1 SUBUNIT     -0.8860
3    O        54.5350   44.1360   30.9850  O.co2      1 SUBUNIT     -0.8860
4    C        55.8630   45.1280   29.2340  C.3        1 SUBUNIT     -0.0856
5    C        57.1100   44.4800   29.8230  C.3        1 SUBUNIT     -0.0446
6    C        57.6140   45.1940   31.0340  C.2        1 SUBUNIT     -0.1140
7    C        58.7650   45.8920   31.0420  C.2        1 SUBUNIT     -0.1153
8    C        60.0090   45.6980   30.2290  C.3        1 SUBUNIT     -0.0460
9    C        59.8450   46.1690   28.8210  C.3        1 SUBUNIT     -0.0723
10   C        59.9320   47.4490   28.4450  C.3        1 SUBUNIT     -0.0720
11   C        61.1580   48.3010   28.3330  C.3        1 SUBUNIT     -0.0722
12   C        62.4160   47.7360   28.9100  C.3        1 SUBUNIT     -0.0722
13   C        63.4130   47.3860   28.0820  C.3        1 SUBUNIT     -0.0739
14   C        63.9270   45.9790   28.1220  C.3        1 SUBUNIT     -0.0499
15   C        64.8130   45.7780   29.3180  C.2        1 SUBUNIT     -0.1218
16   C        64.6100   44.9040   30.3190  C.2        1 SUBUNIT     -0.1220
17   C        65.3440   45.1020   31.6150  C.3        1 SUBUNIT     -0.0504
18   C        64.4960   44.6940   32.7780  C.3        1 SUBUNIT     -0.0746
19   C        65.0040   44.3630   33.9720  C.3        1 SUBUNIT     -0.0728
20   C        65.3960   45.4470   34.9200  C.3        1 SUBUNIT     -0.0727
21   C        64.1890   46.1840   35.3970  C.3        1 SUBUNIT     -0.0728
22   C        63.8630   47.3820   34.8860  C.3        1 SUBUNIT     -0.0731
23   C        62.8640   47.4980   33.7760  C.3        1 SUBUNIT     -0.0717
24   C        61.4530   47.1060   34.2110  C.3        1 SUBUNIT     -0.1128
25   H        55.5907   44.6146   28.3059  H          1 SUBUNIT      0.0369
26   H        56.0674   46.1826   29.0219  H          1 SUBUNIT      0.0369
27   H        56.8748   43.4480   30.1035  H          1 SUBUNIT      0.0350
28   H        57.9018   44.4818   29.0666  H          1 SUBUNIT      0.0350
29   H        57.0742   45.1827   31.9647  H          1 SUBUNIT      0.0808
30   H        58.7295   46.6956   31.7566  H          1 SUBUNIT      0.0801
31   H        60.8258   46.2596   30.6944  H          1 SUBUNIT      0.0324
32   H        60.2593   44.6321   30.2159  H          1 SUBUNIT      0.0324
33   H        60.6047   45.6655   28.2140  H          1 SUBUNIT      0.0346
34   H        58.8482   45.8646   28.4852  H          1 SUBUNIT      0.0346
35   H        59.4669   47.4363   27.4537  H          1 SUBUNIT      0.0347
36   H        59.2655   47.9497   29.1550  H          1 SUBUNIT      0.0347
37   H        61.3360   48.4907   27.2693  H          1 SUBUNIT      0.0351
38   H        60.9538   49.2477   28.8440  H          1 SUBUNIT      0.0351
39   H        62.8499   48.4747   29.5920  H          1 SUBUNIT      0.0360
40   H        62.1672   46.8264   29.4666  H          1 SUBUNIT      0.0360
41   H        63.0407   47.5946   27.0736  H          1 SUBUNIT      0.0370
42   H        64.2379   48.0673   28.3153  H          1 SUBUNIT      0.0370
43   H        63.0797   45.2878   28.1801  H          1 SUBUNIT      0.0356
44   H        64.5000   45.7790   27.2106  H          1 SUBUNIT      0.0356
45   H        65.7095   46.3607   29.4388  H          1 SUBUNIT      0.0836
46   H        63.9228   44.0958   30.1390  H          1 SUBUNIT      0.0842
47   H        66.2557   44.4956   31.6076  H          1 SUBUNIT      0.0379
48   H        65.6090   46.1593   31.7197  H          1 SUBUNIT      0.0379
49   H        63.8115   45.5198   32.9981  H          1 SUBUNIT      0.0414
50   H        63.9203   43.8120   32.4784  H          1 SUBUNIT      0.0414
51   H        64.2405   43.7404   34.4500  H          1 SUBUNIT      0.0420
52   H        65.8875   43.7543   33.7531  H          1 SUBUNIT      0.0420
53   H        65.9117   45.0055   35.7791  H          1 SUBUNIT      0.0421
54   H        66.0673   46.1461   34.4105  H          1 SUBUNIT      0.0421
55   H        63.3117   45.5540   35.2167  H          1 SUBUNIT      0.0420
56   H        64.2991   46.3583   36.4724  H          1 SUBUNIT      0.0420
57   H        63.4947   47.9601   35.7399  H          1 SUBUNIT      0.0416
58   H        64.8110   47.8061   34.5391  H          1 SUBUNIT      0.0416
59   H        62.8528   48.5362   33.4281  H          1 SUBUNIT      0.0411
60   H        63.1785   46.8417   32.9578  H          1 SUBUNIT      0.0411
61   H        61.4242   46.0689   34.5611  H          1 SUBUNIT      0.0424
62   H        60.7458   47.2006   33.3804  H          1 SUBUNIT      0.0424
63   H        61.1017   47.7465   35.0267  H          1 SUBUNIT      0.0424
@<TRIPOS>BOND
     1    1    2 2
     2    1    3 1
     3    1    4 1
     4    4    5 1
     5    5    6 1
     6    6    7 2
     7    7    8 1
     8    8    9 1
     9    9   10 1
    10   10   11 1
    11   11   12 1
    12   12   13 1
    13   13   14 1
    14   14   15 1
    15   15   16 2
    16   16   17 1
    17   17   18 1
    18   18   19 1
    19   19   20 1
    20   20   21 1
    21   21   22 1
    22   22   23 1
    23   23   24 1
    24    4   25 1
    25    4   26 1
    26    5   27 1
    27    5   28 1
    28    6   29 1
    29    7   30 1
    30    8   31 1
    31    8   32 1
    32    9   33 1
    33    9   34 1
    34   10   35 1
    35   10   36 1
    36   11   37 1
    37   11   38 1
    38   12   39 1
    39   12   40 1
    40   13   41 1
    41   13   42 1
    42   14   43 1
    43   14   44 1
    44   15   45 1
    45   16   46 1
    46   17   47 1
    47   17   48 1
    48   18   49 1
    49   18   50 1
    50   19   51 1
    51   19   52 1
    52   20   53 1
    53   20   54 1
    54   21   55 1
    55   21   56 1
    56   22   57 1
    57   22   58 1
    58   23   59 1
    59   23   60 1
    60   24   61 1
    61   24   62 1
    62   24   63 1
