@<TRIPOS>MOLECULE
2FSZ-OHT
 59 61 0 0 0
SMALL
SF_CHARGES


@<TRIPOS>ATOM
1    C        89.6910   19.2370   -4.3800  C.3        1 SUBUNIT     -0.0904
2    C        90.8600   18.8850   -5.3160  C.3        1 SUBUNIT     -0.0350
3    C        92.2720   19.2380   -4.7570  C.2        1 SUBUNIT     -0.0227
4    C        92.7730   18.0360   -3.9710  C.2        1 SUBUNIT     -0.0096
5    C        92.8320   18.1300   -2.4980  C.2        1 SUBUNIT     -0.1018
6    C        93.2920   17.0110   -1.7020  C.2        1 SUBUNIT     -0.0983
7    C        93.6950   15.7920   -2.3760  C.2        1 SUBUNIT     -0.0990
8    C        93.6490   15.6680   -3.8290  C.2        1 SUBUNIT     -0.0983
9    C        93.1880   16.7920   -4.6410  C.2        1 SUBUNIT     -0.1018
10   C        93.0120   20.4990   -4.9110  C.2        1 SUBUNIT     -0.0009
11   C        92.5340   21.8270   -5.6290  C.2        1 SUBUNIT     -0.0146
12   C        91.3280   22.5500   -5.2170  C.2        1 SUBUNIT     -0.1057
13   C        90.8880   23.7710   -5.8200  C.2        1 SUBUNIT     -0.1154
14   C        91.6690   24.3250   -6.8820  C.2        1 SUBUNIT      0.1565
15   O        91.2640   25.4910   -7.4560  O.3        1 SUBUNIT     -0.5082
16   C        92.8740   23.6790   -7.3610  C.2        1 SUBUNIT     -0.1154
17   C        93.2970   22.4480   -6.7360  C.2        1 SUBUNIT     -0.1057
18   C        94.4400   20.5940   -4.3110  C.2        1 SUBUNIT     -0.0186
19   C        94.7010   21.4750   -3.1540  C.2        1 SUBUNIT     -0.1099
20   C        96.0320   21.5500   -2.5880  C.2        1 SUBUNIT     -0.1201
21   C        97.1290   20.7390   -3.1710  C.2        1 SUBUNIT      0.1494
22   O        98.4540   20.7210   -2.6800  O.3        1 SUBUNIT     -0.3927
23   C        99.4570   21.5750   -3.2030  C.3        1 SUBUNIT      0.1808
24   C       100.7040   21.5400   -2.3110  C.3        1 SUBUNIT      0.1563
25   N       101.0410   22.9250   -1.9320  N.4        1 SUBUNIT     -0.3187
26   C       102.5000   23.0940   -1.9470  C.3        1 SUBUNIT      0.1314
27   C       100.5650   23.2800   -0.5870  C.3        1 SUBUNIT      0.1314
28   C        96.8760   19.8880   -4.2990  C.2        1 SUBUNIT     -0.1201
29   C        95.5500   19.8080   -4.8700  C.2        1 SUBUNIT     -0.1099
30   H        89.7779   18.7054   -3.4266  H          1 SUBUNIT      0.0533
31   H        88.7313   18.9643   -4.8311  H          1 SUBUNIT      0.0533
32   H        89.6693   20.3107   -4.1659  H          1 SUBUNIT      0.0533
33   H        90.8255   17.8076   -5.5085  H          1 SUBUNIT      0.0509
34   H        90.7158   19.4290   -6.2553  H          1 SUBUNIT      0.0509
35   H        92.5320   19.0359   -2.0009  H          1 SUBUNIT      0.1148
36   H        93.3338   17.0835   -0.6293  H          1 SUBUNIT      0.1151
37   H        94.0363   14.9591   -1.7864  H          1 SUBUNIT      0.1152
38   H        93.9541   14.7504   -4.3009  H          1 SUBUNIT      0.1151
39   H        93.1537   16.7079   -5.7132  H          1 SUBUNIT      0.1148
40   H        90.7306   22.1502   -4.4164  H          1 SUBUNIT      0.1159
41   H        89.9912   24.2607   -5.4827  H          1 SUBUNIT      0.1160
42   H        91.9833   26.1253   -7.4125  H          1 SUBUNIT      0.3906
43   H        93.4441   24.1070   -8.1670  H          1 SUBUNIT      0.1160
44   H        94.1958   21.9778   -7.0950  H          1 SUBUNIT      0.1159
45   H        93.9098   22.0646   -2.7248  H          1 SUBUNIT      0.1137
46   H        96.2120   22.1962   -1.7467  H          1 SUBUNIT      0.1136
47   H        99.7051   21.2346   -4.2137  H          1 SUBUNIT      0.0374
48   H        99.0528   22.5917   -3.2486  H          1 SUBUNIT      0.0374
49   H       100.5060   20.9554   -1.4066  H          1 SUBUNIT      0.0414
50   H       101.5458   21.0986   -2.8546  H          1 SUBUNIT      0.0414
51   H       100.5868   23.5281   -2.5999  H          1 SUBUNIT      0.3545
52   H       102.9816   22.4092   -1.2412  H          1 SUBUNIT      0.0415
53   H       102.7796   24.1155   -1.6688  H          1 SUBUNIT      0.0415
54   H       102.9081   22.8928   -2.9430  H          1 SUBUNIT      0.0415
55   H        99.4761   23.1866   -0.5188  H          1 SUBUNIT      0.0415
56   H       100.8306   24.3123   -0.3365  H          1 SUBUNIT      0.0415
57   H       101.0071   22.6253    0.1712  H          1 SUBUNIT      0.0415
58   H        97.6794   19.3084   -4.7189  H          1 SUBUNIT      0.1136
59   H        95.3823   19.1626   -5.7145  H          1 SUBUNIT      0.1137
@<TRIPOS>BOND
     1    1    2 1
     2    2    3 1
     3    3    4 1
     4    3   10 2
     5    4    5 2
     6    4    9 1
     7    5    6 1
     8    6    7 2
     9    7    8 1
    10    8    9 2
    11   10   11 1
    12   10   18 1
    13   11   12 2
    14   11   17 1
    15   12   13 1
    16   13   14 2
    17   14   15 1
    18   14   16 1
    19   16   17 2
    20   18   19 2
    21   18   29 1
    22   19   20 1
    23   20   21 2
    24   21   22 1
    25   21   28 1
    26   22   23 1
    27   23   24 1
    28   24   25 1
    29   25   26 1
    30   25   27 1
    31   28   29 2
    32    1   30 1
    33    1   31 1
    34    1   32 1
    35    2   33 1
    36    2   34 1
    37    5   35 1
    38    6   36 1
    39    7   37 1
    40    8   38 1
    41    9   39 1
    42   12   40 1
    43   13   41 1
    44   15   42 1
    45   16   43 1
    46   17   44 1
    47   19   45 1
    48   20   46 1
    49   23   47 1
    50   23   48 1
    51   24   49 1
    52   24   50 1
    53   25   51 1
    54   26   52 1
    55   26   53 1
    56   26   54 1
    57   27   55 1
    58   27   56 1
    59   27   57 1
    60   28   58 1
    61   29   59 1
