@<TRIPOS>MOLECULE
3KL6-443
 58 61 0 0 0
SMALL
SF_CHARGES


@<TRIPOS>ATOM
1    C         1.8430   -9.1500  -16.5290  C.3        1 SUBUNIT     -0.0918
2    C         4.4350   -8.0650  -16.3690  C.2        1 SUBUNIT     -0.0534
3    C         6.1080   -7.5760  -14.7230  C.2        1 SUBUNIT     -0.0978
4    C         6.3900   -3.9080  -14.3980  C.2        1 SUBUNIT      0.0222
5    C         5.4380   -3.4900  -15.3520  C.2        1 SUBUNIT     -0.1037
6    C         4.9240   -5.7800  -15.8780  C.2        1 SUBUNIT     -0.0084
7    C        -1.4730  -10.5620  -13.1870  C.3        1 SUBUNIT      0.1511
8    C        -0.6470  -10.9160  -10.8590  C.3        1 SUBUNIT      0.1900
9    C         0.9450  -11.1940  -12.7730  C.3        1 SUBUNIT      0.1511
10   C         0.0020   -9.4580   -8.8660  C.3        1 SUBUNIT      0.1481
11   O         2.4780   -9.0860  -14.1740  O.3        1 SUBUNIT     -0.5619
12   C         1.7620   -9.8460  -15.1700  C.3        1 SUBUNIT      0.2267
13   S         3.4910   -9.2420  -17.2640  S.o2       1 SUBUNIT      1.1213
14   O         4.0900  -10.5140  -16.9920  O.2        1 SUBUNIT     -0.6118
15   O         3.3890   -8.7440  -18.5940  O.2        1 SUBUNIT     -0.6118
16   C         5.3910   -8.4820  -15.4340  C.2        1 SUBUNIT     -0.1069
17   C         5.8930   -6.2020  -14.9260  C.2        1 SUBUNIT     -0.0139
18   C         6.6140   -5.2410  -14.2010  C.2        1 SUBUNIT     -0.1160
19   Cl        7.2870   -2.7420  -13.4710  Cl         1 SUBUNIT     -0.1078
20   C         4.7170   -4.3970  -16.0770  C.2        1 SUBUNIT     -0.1124
21   C         4.2010   -6.7420  -16.6030  C.2        1 SUBUNIT     -0.1173
22   C         0.3040   -9.9030  -14.7670  C.2        1 SUBUNIT      0.6149
23   O        -0.5350   -9.3670  -15.4730  O.2        1 SUBUNIT     -0.5520
24   N        -0.0590  -10.5200  -13.6180  N.am       1 SUBUNIT     -0.4755
25   C        -1.5500  -10.0320  -11.7370  C.3        1 SUBUNIT     -0.0990
26   C         0.8120  -10.7620  -11.3100  C.3        1 SUBUNIT     -0.0990
27   N        -0.7190  -10.6220   -9.4150  N.am       1 SUBUNIT     -0.4909
28   C        -0.6430   -8.9470   -7.5730  C.3        1 SUBUNIT     -0.0978
29   C        -0.8380  -10.1060   -6.5880  C.3        1 SUBUNIT      0.1371
30   N        -1.4890  -11.2330   -7.2580  N.am       1 SUBUNIT     -0.5935
31   C        -1.4060  -11.4380   -8.5860  C.2        1 SUBUNIT      0.8061
32   O        -1.9810  -12.4010   -9.0530  O.2        1 SUBUNIT     -0.5690
33   H         1.1022   -9.6392  -17.1700  H          1 SUBUNIT      0.0426
34   H         1.5491   -8.1089  -16.3596  H          1 SUBUNIT      0.0426
35   H         6.8344   -7.9261  -14.0106  H          1 SUBUNIT      0.1029
36   H         5.2646   -2.4421  -15.5238  H          1 SUBUNIT      0.1035
37   H        -2.0729   -9.9338  -13.8538  H          1 SUBUNIT      0.0316
38   H        -1.8346  -11.5945  -13.2341  H          1 SUBUNIT      0.0316
39   H        -1.0181  -11.9407  -10.9655  H          1 SUBUNIT      0.0295
40   H         0.7966  -12.2761  -12.8502  H          1 SUBUNIT      0.0316
41   H         1.9428  -10.9347  -13.1421  H          1 SUBUNIT      0.0316
42   H         1.0358   -9.7564   -8.6628  H          1 SUBUNIT      0.0349
43   H        -0.0075   -8.6605   -9.6163  H          1 SUBUNIT      0.0349
44   H         2.4809   -9.5783  -13.3499  H          1 SUBUNIT      0.3892
45   H         2.2182  -10.8404  -15.2157  H          1 SUBUNIT      0.0291
46   H         5.5709   -9.5294  -15.2658  H          1 SUBUNIT      0.1124
47   H         7.3533   -5.5430  -13.4799  H          1 SUBUNIT      0.1131
48   H         3.9974   -4.0415  -16.7936  H          1 SUBUNIT      0.1136
49   H         3.4687   -6.4539  -17.3368  H          1 SUBUNIT      0.1140
50   H        -1.2012   -8.9947  -11.7006  H          1 SUBUNIT      0.0555
51   H        -2.5825  -10.0833  -11.3761  H          1 SUBUNIT      0.0555
52   H         1.1161   -9.7148  -11.2107  H          1 SUBUNIT      0.0555
53   H         1.4554  -11.3902  -10.6851  H          1 SUBUNIT      0.0555
54   H         0.0061   -8.1910   -7.1189  H          1 SUBUNIT      0.0547
55   H        -1.6159   -8.5015   -7.8053  H          1 SUBUNIT      0.0547
56   H         0.1334  -10.4375   -6.2065  H          1 SUBUNIT      0.0378
57   H        -1.4677   -9.7824   -5.7527  H          1 SUBUNIT      0.0378
58   H        -2.0312  -11.9060   -6.7392  H          1 SUBUNIT      0.3274
@<TRIPOS>BOND
     1    1   12 1
     2    1   13 1
     3    2   13 1
     4    2   16 1
     5    2   21 2
     6    3   16 2
     7    3   17 1
     8    4    5 1
     9    4   18 2
    10    4   19 1
    11    5   20 2
    12    6   17 2
    13    6   20 1
    14    6   21 1
    15    7   24 1
    16    7   25 1
    17    8   25 1
    18    8   26 1
    19    8   27 1
    20    9   24 1
    21    9   26 1
    22   10   27 1
    23   10   28 1
    24   11   12 1
    25   12   22 1
    26   13   14 2
    27   13   15 2
    28   17   18 1
    29   22   23 2
    30   22   24 1
    31   27   31 1
    32   28   29 1
    33   29   30 1
    34   30   31 1
    35   31   32 2
    36    1   33 1
    37    1   34 1
    38    3   35 1
    39    5   36 1
    40    7   37 1
    41    7   38 1
    42    8   39 1
    43    9   40 1
    44    9   41 1
    45   10   42 1
    46   10   43 1
    47   11   44 1
    48   12   45 1
    49   16   46 1
    50   18   47 1
    51   20   48 1
    52   21   49 1
    53   25   50 1
    54   25   51 1
    55   26   52 1
    56   26   53 1
    57   28   54 1
    58   28   55 1
    59   29   56 1
    60   29   57 1
    61   30   58 1
