@<TRIPOS>MOLECULE
CHEMBL607632
   31    33     0     0     0
SMALL
USER_CHARGES

@<TRIPOS>ATOM
      1 C1         -0.0158    1.3119    0.0093 C.ar      1 <0>         0.3631
      2 N1          1.0888    2.0360    0.0026 N.ar      1 <0>        -0.5932
      3 C2          2.2875    1.4625   -0.0119 C.ar      1 <0>         0.5083
      4 C3          2.3582    0.0588   -0.0202 C.ar      1 <0>        -0.1051
      5 C4          1.1547   -0.6659   -0.0126 C.ar      1 <0>         0.3097
      6 N2          0.0021   -0.0041    0.0020 N.ar      1 <0>        -0.5629
      7 N3          1.5110   -1.9908   -0.0227 N.pl3     1 <0>        -0.4647
      8 C5          2.8729   -2.0476   -0.0358 C.2       1 <0>         0.2804
      9 N4          3.3680   -0.8441   -0.0343 N.2       1 <0>        -0.4667
     10 C6          0.5956   -3.1347   -0.0195 C.3       1 <0>         0.3158
     11 C7          0.1918   -3.4782    1.4304 C.3       1 <0>         0.0767
     12 H1         -0.7989   -3.0862    1.6604 H         1 <0>         0.1004
     13 C8          0.1808   -5.0311    1.4103 C.3       1 <0>         0.0480
     14 H2         -0.7670   -5.4124    1.0302 H         1 <0>         0.0963
     15 C9          1.3366   -5.3206    0.4198 C.3       1 <0>         0.0159
     16 H3          2.2964   -5.2744    0.9344 H         1 <0>         0.1037
     17 O1          1.2511   -4.2831   -0.5700 O.3       1 <0>        -0.3493
     18 C10         1.1486   -6.6934   -0.2291 C.3       1 <0>         0.0669
     19 F1          2.2568   -6.9856   -1.0314 F         1 <0>        -0.2036
     20 O2          0.4650   -5.5650    2.7050 O.3       1 <0>        -0.5420
     21 O3          1.1597   -2.9844    2.3585 O.3       1 <0>        -0.5348
     22 N5          3.4393    2.2295   -0.0193 N.pl3     1 <0>        -0.8178
     23 H4         -0.9693    1.8187    0.0257 H         1 <0>         0.2045
     24 H5          3.4551   -2.9572   -0.0459 H         1 <0>         0.2154
     25 H6         -0.2923   -2.8991   -0.6062 H         1 <0>         0.1385
     26 H7          1.0520   -7.4522    0.5474 H         1 <0>         0.0931
     27 H8          0.2479   -6.6848   -0.8429 H         1 <0>         0.0882
     28 H9          0.4686   -6.5314    2.7398 H         1 <0>         0.3913
     29 H10         0.9510   -3.1752    3.2832 H         1 <0>         0.3944
     30 H11         3.3774    3.1975   -0.0138 H         1 <0>         0.4104
     31 H12         4.3085    1.7992   -0.0299 H         1 <0>         0.4190
@<TRIPOS>BOND
     1    1    6 ar
     2    1    2 ar
     3    1   23 1
     4    2    3 ar
     5    3    4 ar
     6    3   22 1
     7    4    9 1
     8    4    5 ar
     9    5    6 ar
    10    5    7 1
    11    7    8 1
    12    7   10 1
    13    8    9 2
    14    8   24 1
    15   10   17 1
    16   10   11 1
    17   10   25 1
    18   11   12 1
    19   11   13 1
    20   11   21 1
    21   13   14 1
    22   13   15 1
    23   13   20 1
    24   15   16 1
    25   15   17 1
    26   15   18 1
    27   18   19 1
    28   18   26 1
    29   18   27 1
    30   20   28 1
    31   21   29 1
    32   22   30 1
    33   22   31 1
@<TRIPOS>MOLECULE
CHEMBL607632__1
   31    33     0     0     0
SMALL
USER_CHARGES

@<TRIPOS>ATOM
      1 C1         -0.0158    1.3119    0.0093 C.ar      1 <0>         0.3667
      2 N1          1.0888    2.0360    0.0026 N.ar      1 <0>        -0.5909
      3 C2          2.2875    1.4625   -0.0119 C.ar      1 <0>         0.5096
      4 C3          2.3582    0.0588   -0.0202 C.ar      1 <0>        -0.1099
      5 C4          1.1547   -0.6659   -0.0126 C.ar      1 <0>         0.3142
      6 N2          0.0021   -0.0041    0.0020 N.ar      1 <0>        -0.5503
      7 N3          1.5110   -1.9908   -0.0227 N.pl3     1 <0>        -0.4724
      8 C5          2.8729   -2.0476   -0.0358 C.2       1 <0>         0.2620
      9 N4          3.3680   -0.8441   -0.0343 N.2       1 <0>        -0.4589
     10 C6          0.5956   -3.1347   -0.0195 C.3       1 <0>         0.3155
     11 C7          0.2093   -3.5183   -1.4652 C.3       1 <0>         0.0793
     12 H1          0.9741   -3.1842   -2.1663 H         1 <0>         0.0867
     13 C8          0.1372   -5.0615   -1.4375 C.3       1 <0>         0.0475
     14 H2          0.8663   -5.4903   -2.1250 H         1 <0>         0.0898
     15 C9          0.4884   -5.4276    0.0216 C.3       1 <0>         0.0153
     16 H3         -0.4201   -5.5508    0.6111 H         1 <0>         0.1056
     17 O1          1.2558   -4.3054    0.5091 O.3       1 <0>        -0.3499
     18 C10         1.3265   -6.7070    0.0627 C.3       1 <0>         0.0713
     19 F1          1.5372   -7.0838    1.3934 F         1 <0>        -0.2032
     20 O2         -1.1805   -5.5071   -1.7652 O.3       1 <0>        -0.5381
     21 O3         -1.0609   -2.9610   -1.8087 O.3       1 <0>        -0.5255
     22 N5          3.4393    2.2295   -0.0193 N.pl3     1 <0>        -0.8168
     23 H4         -0.9693    1.8187    0.0257 H         1 <0>         0.2067
     24 H5          3.4551   -2.9572   -0.0459 H         1 <0>         0.2237
     25 H6         -0.2954   -2.9051    0.5649 H         1 <0>         0.1253
     26 H7          0.7989   -7.5039   -0.4614 H         1 <0>         0.0964
     27 H8          2.2869   -6.5280   -0.4207 H         1 <0>         0.0898
     28 H9         -1.2824   -6.4687   -1.7627 H         1 <0>         0.3881
     29 H10        -1.3526   -3.1708   -2.7065 H         1 <0>         0.3916
     30 H11         3.3774    3.1975   -0.0138 H         1 <0>         0.4114
     31 H12         4.3085    1.7992   -0.0299 H         1 <0>         0.4192
@<TRIPOS>BOND
     1    1    6 ar
     2    1    2 ar
     3    1   23 1
     4    2    3 ar
     5    3    4 ar
     6    3   22 1
     7    4    9 1
     8    4    5 ar
     9    5    6 ar
    10    5    7 1
    11    7    8 1
    12    7   10 1
    13    8    9 2
    14    8   24 1
    15   10   17 1
    16   10   11 1
    17   10   25 1
    18   11   12 1
    19   11   13 1
    20   11   21 1
    21   13   14 1
    22   13   15 1
    23   13   20 1
    24   15   16 1
    25   15   17 1
    26   15   18 1
    27   18   19 1
    28   18   26 1
    29   18   27 1
    30   20   28 1
    31   21   29 1
    32   22   30 1
    33   22   31 1
@<TRIPOS>MOLECULE
CHEMBL610384
   43    45     0     0     0
SMALL
USER_CHARGES

@<TRIPOS>ATOM
      1 C1         -0.0187    1.5258    0.0104 C.3       1 <0>        -0.1526
      2 C2          0.0021   -0.0041    0.0020 C.3       1 <0>        -0.1233
      3 C3          0.7182   -0.4975   -1.2568 C.3       1 <0>        -0.1191
      4 C4          0.7390   -2.0273   -1.2652 C.3       1 <0>         0.0641
      5 O1          1.4078   -2.4882   -2.4409 O.3       1 <0>        -0.3517
      6 C5          1.5123   -3.8167   -2.6014 C.2       1 <0>         0.4431
      7 O2          1.0512   -4.5637   -1.7711 O.2       1 <0>        -0.4758
      8 C6          2.2048   -4.3767   -3.8171 C.3       1 <0>         0.0706
      9 H1          3.2136   -3.9699   -3.8880 H         1 <0>         0.1427
     10 C7          1.4047   -4.0175   -5.0875 C.3       1 <0>         0.0594
     11 H2          0.3628   -3.8096   -4.8439 H         1 <0>         0.0955
     12 C8          1.5265   -5.3154   -5.9317 C.3       1 <0>         0.0772
     13 H3          0.6687   -5.4357   -6.5933 H         1 <0>         0.1059
     14 C9          1.5277   -6.3920   -4.8174 C.3       1 <0>         0.3199
     15 O3          2.2620   -5.8052   -3.7288 O.3       1 <0>        -0.3333
     16 N1          2.1987   -7.6074   -5.2853 N.pl3     1 <0>        -0.4622
     17 C10         3.5060   -7.9360   -5.0823 C.2       1 <0>         0.2851
     18 N2          3.7663   -9.0856   -5.6340 N.2       1 <0>        -0.4658
     19 C11         2.6458   -9.5665   -6.2244 C.ar      1 <0>        -0.1033
     20 C12         1.6251   -8.6263   -6.0031 C.ar      1 <0>         0.3078
     21 N3          0.4095   -8.8676   -6.4829 N.ar      1 <0>        -0.5630
     22 C13         0.1603   -9.9723   -7.1542 C.ar      1 <0>         0.3648
     23 N4          1.0855  -10.8858   -7.3843 N.ar      1 <0>        -0.5918
     24 C14         2.3321  -10.7275   -6.9510 C.ar      1 <0>         0.5091
     25 N5          3.2947  -11.6910   -7.1961 N.pl3     1 <0>        -0.8168
     26 O4          2.7495   -5.3363   -6.6705 O.3       1 <0>        -0.5334
     27 O5          1.9974   -2.9077   -5.7651 O.3       1 <0>        -0.5375
     28 H4          1.0039    1.9031    0.0027 H         1 <0>         0.0567
     29 H5         -0.5459    1.8868   -0.8726 H         1 <0>         0.0565
     30 H6         -0.5289    1.8773    0.9072 H         1 <0>         0.0589
     31 H7          0.5293   -0.3651    0.8851 H         1 <0>         0.0665
     32 H8         -1.0205   -0.3814    0.0098 H         1 <0>         0.0662
     33 H9          0.1910   -0.1364   -2.1398 H         1 <0>         0.0757
     34 H10         1.7408   -0.1202   -1.2645 H         1 <0>         0.0765
     35 H11         1.2661   -2.3884   -0.3821 H         1 <0>         0.0719
     36 H12        -0.2836   -2.4046   -1.2575 H         1 <0>         0.0709
     37 H13         0.5071   -6.6175   -4.5082 H         1 <0>         0.1326
     38 H14         4.2205   -7.3314   -4.5435 H         1 <0>         0.2208
     39 H15        -0.8384  -10.1377   -7.5305 H         1 <0>         0.2056
     40 H16         4.1982  -11.5692   -6.8651 H         1 <0>         0.4194
     41 H17         3.0658  -12.4883   -7.6990 H         1 <0>         0.4109
     42 H18         2.8374   -4.6129   -7.3063 H         1 <0>         0.3968
     43 H19         2.0223   -2.0950   -5.2416 H         1 <0>         0.3983
@<TRIPOS>BOND
     1    1    2 1
     2    1   28 1
     3    1   29 1
     4    1   30 1
     5    2    3 1
     6    2   31 1
     7    2   32 1
     8    3    4 1
     9    3   33 1
    10    3   34 1
    11    4    5 1
    12    4   35 1
    13    4   36 1
    14    5    6 1
    15    6    7 2
    16    6    8 1
    17    8    9 1
    18    8   15 1
    19    8   10 1
    20   10   11 1
    21   10   12 1
    22   10   27 1
    23   12   13 1
    24   12   14 1
    25   12   26 1
    26   14   15 1
    27   14   16 1
    28   14   37 1
    29   16   20 1
    30   16   17 1
    31   17   18 2
    32   17   38 1
    33   18   19 1
    34   19   24 ar
    35   19   20 ar
    36   20   21 ar
    37   21   22 ar
    38   22   23 ar
    39   22   39 1
    40   23   24 ar
    41   24   25 1
    42   25   40 1
    43   25   41 1
    44   26   42 1
    45   27   43 1
@<TRIPOS>MOLECULE
CHEMBL610384__1
   43    45     0     0     0
SMALL
USER_CHARGES

@<TRIPOS>ATOM
      1 C1         -0.0187    1.5258    0.0104 C.3       1 <0>        -0.1527
      2 C2          0.0021   -0.0041    0.0020 C.3       1 <0>        -0.1231
      3 C3          0.7182   -0.4975   -1.2568 C.3       1 <0>        -0.1194
      4 C4          0.7390   -2.0273   -1.2652 C.3       1 <0>         0.0645
      5 O1          1.4078   -2.4882   -2.4409 O.3       1 <0>        -0.3489
      6 C5          1.5123   -3.8167   -2.6014 C.2       1 <0>         0.4584
      7 O2          1.0512   -4.5637   -1.7711 O.2       1 <0>        -0.4732
      8 C6          2.2048   -4.3767   -3.8171 C.3       1 <0>         0.0632
      9 H1          3.2137   -3.9704   -3.8888 H         1 <0>         0.1337
     10 C7          1.4054   -4.0214   -5.0857 C.3       1 <0>         0.0556
     11 H2          0.4920   -3.4873   -4.8239 H         1 <0>         0.0929
     12 C8          1.0684   -5.3934   -5.7185 C.3       1 <0>         0.0788
     13 H3          0.0632   -5.7125   -5.4430 H         1 <0>         0.0940
     14 C9          2.1366   -6.3170   -5.0794 C.3       1 <0>         0.3198
     15 O3          2.2603   -5.8105   -3.7309 O.3       1 <0>        -0.3338
     16 N1          1.6761   -7.7077   -5.0685 N.pl3     1 <0>        -0.4727
     17 C10         1.0465   -8.3408   -4.0384 C.2       1 <0>         0.2641
     18 N2          0.7786   -9.5705   -4.3696 N.2       1 <0>        -0.4592
     19 C11         1.2179   -9.8041   -5.6296 C.ar      1 <0>        -0.1102
     20 C12         1.7943   -8.6100   -6.0952 C.ar      1 <0>         0.3173
     21 N3          2.3017   -8.5735   -7.3229 N.ar      1 <0>        -0.5459
     22 C13         2.2643   -9.6381   -8.0963 C.ar      1 <0>         0.3650
     23 N4          1.7307  -10.7806   -7.7043 N.ar      1 <0>        -0.5911
     24 C14         1.2066  -10.9148   -6.4902 C.ar      1 <0>         0.5088
     25 N5          0.6485  -12.1159   -6.0887 N.pl3     1 <0>        -0.8174
     26 O4          1.2155   -5.3496   -7.1393 O.3       1 <0>        -0.5167
     27 O5          2.2029   -3.2390   -5.9766 O.3       1 <0>        -0.5300
     28 H4          1.0039    1.9031    0.0027 H         1 <0>         0.0568
     29 H5         -0.5459    1.8868   -0.8726 H         1 <0>         0.0565
     30 H6         -0.5289    1.8773    0.9072 H         1 <0>         0.0591
     31 H7          0.5293   -0.3651    0.8851 H         1 <0>         0.0668
     32 H8         -1.0205   -0.3814    0.0098 H         1 <0>         0.0663
     33 H9          0.1910   -0.1364   -2.1398 H         1 <0>         0.0757
     34 H10         1.7408   -0.1202   -1.2645 H         1 <0>         0.0767
     35 H11         1.2661   -2.3884   -0.3821 H         1 <0>         0.0730
     36 H12        -0.2836   -2.4046   -1.2575 H         1 <0>         0.0718
     37 H13         3.0855   -6.2299   -5.6086 H         1 <0>         0.1322
     38 H14         0.8058   -7.8887   -3.0876 H         1 <0>         0.2253
     39 H15         2.6856   -9.5747   -9.0887 H         1 <0>         0.2061
     40 H16         0.2591  -12.1981   -5.2041 H         1 <0>         0.4191
     41 H17         0.6468  -12.8755   -6.6919 H         1 <0>         0.4111
     42 H18         0.6285   -4.7173   -7.5761 H         1 <0>         0.3901
     43 H19         2.4900   -2.3926   -5.6073 H         1 <0>         0.3920
@<TRIPOS>BOND
     1    1    2 1
     2    1   28 1
     3    1   29 1
     4    1   30 1
     5    2    3 1
     6    2   31 1
     7    2   32 1
     8    3    4 1
     9    3   33 1
    10    3   34 1
    11    4    5 1
    12    4   35 1
    13    4   36 1
    14    5    6 1
    15    6    7 2
    16    6    8 1
    17    8    9 1
    18    8   15 1
    19    8   10 1
    20   10   11 1
    21   10   12 1
    22   10   27 1
    23   12   13 1
    24   12   14 1
    25   12   26 1
    26   14   15 1
    27   14   16 1
    28   14   37 1
    29   16   20 1
    30   16   17 1
    31   17   18 2
    32   17   38 1
    33   18   19 1
    34   19   24 ar
    35   19   20 ar
    36   20   21 ar
    37   21   22 ar
    38   22   23 ar
    39   22   39 1
    40   23   24 ar
    41   24   25 1
    42   25   40 1
    43   25   41 1
    44   26   42 1
    45   27   43 1
@<TRIPOS>MOLECULE
CHEMBL284846
   33    35     0     0     0
SMALL
USER_CHARGES

@<TRIPOS>ATOM
      1 C1         -0.0168    1.3888    0.0097 C.ar      1 <0>        -0.2297
      2 C2          1.1684    2.0691    0.0020 C.ar      1 <0>         0.1555
      3 N1          2.3299    1.4347   -0.0129 N.ar      1 <0>        -0.5628
      4 C3          2.4134    0.1149   -0.0208 C.ar      1 <0>         0.4771
      5 C4          1.2446   -0.6613   -0.0134 C.ar      1 <0>        -0.0624
      6 C5          0.0021   -0.0041    0.0020 C.ar      1 <0>         0.1260
      7 N2         -0.9528   -0.9923    0.0054 N.pl3     1 <0>        -0.4586
      8 C6         -0.2992   -2.1879   -0.0075 C.2       1 <0>         0.2571
      9 N3          0.9874   -1.9923   -0.0176 N.2       1 <0>        -0.4716
     10 C7         -2.4046   -0.7967    0.0209 C.3       1 <0>         0.1696
     11 C8         -3.0225   -1.5325    1.1871 C.2       1 <0>        -0.1382
     12 C9         -3.5882   -2.6420    0.7962 C.2       1 <0>        -0.1523
     13 C10        -3.4420   -2.8311   -0.6957 C.3       1 <0>         0.1009
     14 C11        -3.0476   -1.4354   -1.2321 C.3       1 <0>         0.1023
     15 O1         -2.1001   -1.5437   -2.2962 O.3       1 <0>        -0.5418
     16 O2         -4.6818   -3.2523   -1.2681 O.3       1 <0>        -0.5534
     17 C12        -4.2941   -3.6078    1.7128 C.3       1 <0>         0.1226
     18 O3         -4.2425   -3.1163    3.0536 O.3       1 <0>        -0.5678
     19 N4          3.6572   -0.5024   -0.0369 N.pl3     1 <0>        -0.8349
     20 H1         -0.9550    1.9235    0.0260 H         1 <0>         0.1272
     21 H2          1.1569    3.1490    0.0079 H         1 <0>         0.1607
     22 H3         -0.7785   -3.1558   -0.0079 H         1 <0>         0.2010
     23 H4         -2.6434    0.2656    0.0705 H         1 <0>         0.1204
     24 H5         -2.9988   -1.1861    2.2097 H         1 <0>         0.1508
     25 H6         -2.6574   -3.5564   -0.9115 H         1 <0>         0.0845
     26 H7         -3.9273   -0.8752   -1.5491 H         1 <0>         0.1009
     27 H8         -2.4581   -1.9387   -3.1030 H         1 <0>         0.3906
     28 H9         -5.0033   -4.0994   -0.9302 H         1 <0>         0.3844
     29 H10        -5.3341   -3.7089    1.4026 H         1 <0>         0.0669
     30 H11        -3.8040   -4.5801    1.6631 H         1 <0>         0.0649
     31 H12        -4.6785   -3.6890    3.6994 H         1 <0>         0.3899
     32 H13         4.4650    0.0345   -0.0424 H         1 <0>         0.4056
     33 H14         3.7181   -1.4705   -0.0427 H         1 <0>         0.4143
@<TRIPOS>BOND
     1    1    6 ar
     2    1    2 ar
     3    1   20 1
     4    2    3 ar
     5    2   21 1
     6    3    4 ar
     7    4    5 ar
     8    4   19 1
     9    5    9 1
    10    5    6 ar
    11    6    7 1
    12    7    8 1
    13    7   10 1
    14    8    9 2
    15    8   22 1
    16   10   14 1
    17   10   11 1
    18   10   23 1
    19   11   12 2
    20   11   24 1
    21   12   13 1
    22   12   17 1
    23   13   14 1
    24   13   16 1
    25   13   25 1
    26   14   15 1
    27   14   26 1
    28   15   27 1
    29   16   28 1
    30   17   18 1
    31   17   29 1
    32   17   30 1
    33   18   31 1
    34   19   32 1
    35   19   33 1
@<TRIPOS>MOLECULE
CHEMBL284846__1
   33    35     0     0     0
SMALL
USER_CHARGES

@<TRIPOS>ATOM
      1 C1         -0.0168    1.3888    0.0097 C.ar      1 <0>        -0.2301
      2 C2          1.1684    2.0691    0.0020 C.ar      1 <0>         0.1604
      3 N1          2.3299    1.4347   -0.0129 N.ar      1 <0>        -0.5608
      4 C3          2.4134    0.1149   -0.0208 C.ar      1 <0>         0.4792
      5 C4          1.2446   -0.6613   -0.0134 C.ar      1 <0>        -0.0651
      6 C5          0.0021   -0.0041    0.0020 C.ar      1 <0>         0.1248
      7 N2         -0.9528   -0.9923    0.0054 N.pl3     1 <0>        -0.4726
      8 C6         -0.2992   -2.1879   -0.0075 C.2       1 <0>         0.2384
      9 N3          0.9874   -1.9923   -0.0176 N.2       1 <0>        -0.4633
     10 C7         -2.4046   -0.7967    0.0209 C.3       1 <0>         0.1637
     11 C8         -3.0225   -1.5325    1.1871 C.2       1 <0>        -0.1322
     12 C9         -3.5882   -2.6420    0.7962 C.2       1 <0>        -0.1532
     13 C10        -3.4420   -2.8311   -0.6957 C.3       1 <0>         0.1036
     14 C11        -3.0476   -1.4354   -1.2321 C.3       1 <0>         0.1083
     15 O1         -4.2008   -0.7010   -1.6477 O.3       1 <0>        -0.5376
     16 O2         -4.6818   -3.2523   -1.2681 O.3       1 <0>        -0.5487
     17 C12        -4.2941   -3.6078    1.7128 C.3       1 <0>         0.1236
     18 O3         -4.2425   -3.1163    3.0536 O.3       1 <0>        -0.5678
     19 N4          3.6572   -0.5024   -0.0369 N.pl3     1 <0>        -0.8333
     20 H1         -0.9550    1.9235    0.0260 H         1 <0>         0.1309
     21 H2          1.1569    3.1490    0.0079 H         1 <0>         0.1632
     22 H3         -0.7785   -3.1558   -0.0079 H         1 <0>         0.2072
     23 H4         -2.6434    0.2656    0.0705 H         1 <0>         0.1258
     24 H5         -2.9988   -1.1861    2.2097 H         1 <0>         0.1481
     25 H6         -2.6574   -3.5564   -0.9115 H         1 <0>         0.0806
     26 H7         -2.3249   -1.5180   -2.0438 H         1 <0>         0.0855
     27 H8         -4.6376   -1.0644   -2.4302 H         1 <0>         0.3954
     28 H9         -5.0033   -4.0994   -0.9302 H         1 <0>         0.3853
     29 H10        -5.3341   -3.7089    1.4026 H         1 <0>         0.0660
     30 H11        -3.8040   -4.5801    1.6631 H         1 <0>         0.0636
     31 H12        -4.6785   -3.6890    3.6994 H         1 <0>         0.3890
     32 H13         4.4650    0.0345   -0.0424 H         1 <0>         0.4068
     33 H14         3.7181   -1.4705   -0.0427 H         1 <0>         0.4149
@<TRIPOS>BOND
     1    1    6 ar
     2    1    2 ar
     3    1   20 1
     4    2    3 ar
     5    2   21 1
     6    3    4 ar
     7    4    5 ar
     8    4   19 1
     9    5    9 1
    10    5    6 ar
    11    6    7 1
    12    7    8 1
    13    7   10 1
    14    8    9 2
    15    8   22 1
    16   10   14 1
    17   10   11 1
    18   10   23 1
    19   11   12 2
    20   11   24 1
    21   12   13 1
    22   12   17 1
    23   13   14 1
    24   13   16 1
    25   13   25 1
    26   14   15 1
    27   14   26 1
    28   15   27 1
    29   16   28 1
    30   17   18 1
    31   17   29 1
    32   17   30 1
    33   18   31 1
    34   19   32 1
    35   19   33 1
@<TRIPOS>MOLECULE
CHEMBL284846__2
   33    35     0     0     0
SMALL
USER_CHARGES

@<TRIPOS>ATOM
      1 C1         -0.0168    1.3888    0.0097 C.ar      1 <0>        -0.2287
      2 C2          1.1684    2.0691    0.0020 C.ar      1 <0>         0.1505
      3 N1          2.3299    1.4347   -0.0129 N.ar      1 <0>        -0.5636
      4 C3          2.4134    0.1149   -0.0208 C.ar      1 <0>         0.4738
      5 C4          1.2446   -0.6613   -0.0134 C.ar      1 <0>        -0.0601
      6 C5          0.0021   -0.0041    0.0020 C.ar      1 <0>         0.1179
      7 N2         -0.9528   -0.9923    0.0054 N.pl3     1 <0>        -0.4577
      8 C6         -0.2992   -2.1879   -0.0075 C.2       1 <0>         0.2719
      9 N3          0.9874   -1.9923   -0.0176 N.2       1 <0>        -0.4842
     10 C7         -2.4046   -0.7967    0.0209 C.3       1 <0>         0.1659
     11 C8         -3.0225   -1.5325    1.1871 C.2       1 <0>        -0.1262
     12 C9         -3.5882   -2.6420    0.7962 C.2       1 <0>        -0.1624
     13 C10        -3.4420   -2.8311   -0.6957 C.3       1 <0>         0.1013
     14 C11        -3.0476   -1.4354   -1.2321 C.3       1 <0>         0.0990
     15 O1         -2.1001   -1.5437   -2.2962 O.3       1 <0>        -0.5293
     16 O2         -2.4133   -3.7819   -0.9786 O.3       1 <0>        -0.5378
     17 C12        -4.2941   -3.6078    1.7128 C.3       1 <0>         0.1246
     18 O3         -4.2425   -3.1163    3.0536 O.3       1 <0>        -0.5689
     19 N4          3.6572   -0.5024   -0.0369 N.pl3     1 <0>        -0.8361
     20 H1         -0.9550    1.9235    0.0260 H         1 <0>         0.1249
     21 H2          1.1569    3.1490    0.0079 H         1 <0>         0.1589
     22 H3         -0.7785   -3.1558   -0.0079 H         1 <0>         0.2181
     23 H4         -2.6434    0.2656    0.0705 H         1 <0>         0.1163
     24 H5         -2.9988   -1.1861    2.2097 H         1 <0>         0.1491
     25 H6         -4.3876   -3.1524   -1.1323 H         1 <0>         0.0781
     26 H7         -3.9273   -0.8752   -1.5491 H         1 <0>         0.0997
     27 H8         -2.4581   -1.9387   -3.1030 H         1 <0>         0.3862
     28 H9         -2.5843   -4.6642   -0.6215 H         1 <0>         0.3830
     29 H10        -5.3341   -3.7089    1.4026 H         1 <0>         0.0644
     30 H11        -3.8040   -4.5801    1.6631 H         1 <0>         0.0634
     31 H12        -4.6785   -3.6890    3.6994 H         1 <0>         0.3895
     32 H13         4.4650    0.0345   -0.0424 H         1 <0>         0.4046
     33 H14         3.7181   -1.4705   -0.0427 H         1 <0>         0.4140
@<TRIPOS>BOND
     1    1    6 ar
     2    1    2 ar
     3    1   20 1
     4    2    3 ar
     5    2   21 1
     6    3    4 ar
     7    4    5 ar
     8    4   19 1
     9    5    9 1
    10    5    6 ar
    11    6    7 1
    12    7    8 1
    13    7   10 1
    14    8    9 2
    15    8   22 1
    16   10   14 1
    17   10   11 1
    18   10   23 1
    19   11   12 2
    20   11   24 1
    21   12   13 1
    22   12   17 1
    23   13   14 1
    24   13   16 1
    25   13   25 1
    26   14   15 1
    27   14   26 1
    28   15   27 1
    29   16   28 1
    30   17   18 1
    31   17   29 1
    32   17   30 1
    33   18   31 1
    34   19   32 1
    35   19   33 1
@<TRIPOS>MOLECULE
CHEMBL284846__3
   33    35     0     0     0
SMALL
USER_CHARGES

@<TRIPOS>ATOM
      1 C1         -0.0168    1.3888    0.0097 C.ar      1 <0>        -0.2291
      2 C2          1.1684    2.0691    0.0020 C.ar      1 <0>         0.1557
      3 N1          2.3299    1.4347   -0.0129 N.ar      1 <0>        -0.5613
      4 C3          2.4134    0.1149   -0.0208 C.ar      1 <0>         0.4762
      5 C4          1.2446   -0.6613   -0.0134 C.ar      1 <0>        -0.0628
      6 C5          0.0021   -0.0041    0.0020 C.ar      1 <0>         0.1169
      7 N2         -0.9528   -0.9923    0.0054 N.pl3     1 <0>        -0.4725
      8 C6         -0.2992   -2.1879   -0.0075 C.2       1 <0>         0.2530
      9 N3          0.9874   -1.9923   -0.0176 N.2       1 <0>        -0.4749
     10 C7         -2.4046   -0.7967    0.0209 C.3       1 <0>         0.1675
     11 C8         -3.0225   -1.5325    1.1871 C.2       1 <0>        -0.1201
     12 C9         -3.5882   -2.6420    0.7962 C.2       1 <0>        -0.1621
     13 C10        -3.4420   -2.8311   -0.6957 C.3       1 <0>         0.1054
     14 C11        -3.0476   -1.4354   -1.2321 C.3       1 <0>         0.1002
     15 O1         -4.2008   -0.7010   -1.6477 O.3       1 <0>        -0.5414
     16 O2         -2.4133   -3.7819   -0.9786 O.3       1 <0>        -0.5493
     17 C12        -4.2941   -3.6078    1.7128 C.3       1 <0>         0.1256
     18 O3         -4.2425   -3.1163    3.0536 O.3       1 <0>        -0.5685
     19 N4          3.6572   -0.5024   -0.0369 N.pl3     1 <0>        -0.8344
     20 H1         -0.9550    1.9235    0.0260 H         1 <0>         0.1289
     21 H2          1.1569    3.1490    0.0079 H         1 <0>         0.1616
     22 H3         -0.7785   -3.1558   -0.0079 H         1 <0>         0.2231
     23 H4         -2.6434    0.2656    0.0705 H         1 <0>         0.1231
     24 H5         -2.9988   -1.1861    2.2097 H         1 <0>         0.1477
     25 H6         -4.3876   -3.1524   -1.1323 H         1 <0>         0.0815
     26 H7         -2.3249   -1.5180   -2.0438 H         1 <0>         0.0927
     27 H8         -4.6376   -1.0644   -2.4302 H         1 <0>         0.3922
     28 H9         -2.5843   -4.6642   -0.6215 H         1 <0>         0.3887
     29 H10        -5.3341   -3.7089    1.4026 H         1 <0>         0.0641
     30 H11        -3.8040   -4.5801    1.6631 H         1 <0>         0.0627
     31 H12        -4.6785   -3.6890    3.6994 H         1 <0>         0.3890
     32 H13         4.4650    0.0345   -0.0424 H         1 <0>         0.4059
     33 H14         3.7181   -1.4705   -0.0427 H         1 <0>         0.4147
@<TRIPOS>BOND
     1    1    6 ar
     2    1    2 ar
     3    1   20 1
     4    2    3 ar
     5    2   21 1
     6    3    4 ar
     7    4    5 ar
     8    4   19 1
     9    5    9 1
    10    5    6 ar
    11    6    7 1
    12    7    8 1
    13    7   10 1
    14    8    9 2
    15    8   22 1
    16   10   14 1
    17   10   11 1
    18   10   23 1
    19   11   12 2
    20   11   24 1
    21   12   13 1
    22   12   17 1
    23   13   14 1
    24   13   16 1
    25   13   25 1
    26   14   15 1
    27   14   26 1
    28   15   27 1
    29   16   28 1
    30   17   18 1
    31   17   29 1
    32   17   30 1
    33   18   31 1
    34   19   32 1
    35   19   33 1
@<TRIPOS>MOLECULE
CHEMBL284846__4
   33    35     0     0     0
SMALL
USER_CHARGES

@<TRIPOS>ATOM
      1 C1         -0.0168    1.3888    0.0097 C.ar      1 <0>        -0.2279
      2 C2          1.1684    2.0691    0.0020 C.ar      1 <0>         0.1579
      3 N1          2.3299    1.4347   -0.0129 N.ar      1 <0>        -0.5614
      4 C3          2.4134    0.1149   -0.0208 C.ar      1 <0>         0.4781
      5 C4          1.2446   -0.6613   -0.0134 C.ar      1 <0>        -0.0652
      6 C5          0.0021   -0.0041    0.0020 C.ar      1 <0>         0.1244
      7 N2         -0.9528   -0.9923    0.0054 N.pl3     1 <0>        -0.4751
      8 C6         -0.2992   -2.1879   -0.0075 C.2       1 <0>         0.2431
      9 N3          0.9874   -1.9923   -0.0176 N.2       1 <0>        -0.4661
     10 C7         -2.4046   -0.7967    0.0209 C.3       1 <0>         0.1711
     11 C8         -3.0454   -1.5184   -1.1418 C.2       1 <0>        -0.1354
     12 C9         -4.1120   -2.1677   -0.7617 C.2       1 <0>        -0.1566
     13 C10        -4.3604   -1.9873    0.7178 C.3       1 <0>         0.1072
     14 C11        -3.0229   -1.4507    1.2784 C.3       1 <0>         0.1048
     15 O1         -3.2485   -0.4803    2.3028 O.3       1 <0>        -0.5484
     16 O2         -4.6877   -3.2393    1.3239 O.3       1 <0>        -0.5553
     17 C12        -4.9819   -2.9889   -1.6783 C.3       1 <0>         0.1235
     18 O3         -4.4548   -2.9399   -3.0056 O.3       1 <0>        -0.5682
     19 N4          3.6572   -0.5024   -0.0369 N.pl3     1 <0>        -0.8340
     20 H1         -0.9550    1.9235    0.0260 H         1 <0>         0.1292
     21 H2          1.1569    3.1490    0.0079 H         1 <0>         0.1621
     22 H3         -0.7785   -3.1558   -0.0079 H         1 <0>         0.2111
     23 H4         -2.6442    0.2661   -0.0111 H         1 <0>         0.1286
     24 H5         -2.6703   -1.4991   -2.1544 H         1 <0>         0.1503
     25 H6         -5.1590   -1.2641    0.8833 H         1 <0>         0.0904
     26 H7         -2.3971   -2.2648    1.6438 H         1 <0>         0.0923
     27 H8         -3.6354   -0.8443    3.1109 H         1 <0>         0.3929
     28 H9         -5.4918   -3.6473    0.9744 H         1 <0>         0.3850
     29 H10        -4.9999   -4.0224   -1.3324 H         1 <0>         0.0672
     30 H11        -5.9950   -2.5868   -1.6745 H         1 <0>         0.0638
     31 H12        -4.9657   -3.4477   -3.6507 H         1 <0>         0.3897
     32 H13         4.4650    0.0345   -0.0424 H         1 <0>         0.4063
     33 H14         3.7181   -1.4705   -0.0427 H         1 <0>         0.4148
@<TRIPOS>BOND
     1    1    6 ar
     2    1    2 ar
     3    1   20 1
     4    2    3 ar
     5    2   21 1
     6    3    4 ar
     7    4    5 ar
     8    4   19 1
     9    5    9 1
    10    5    6 ar
    11    6    7 1
    12    7    8 1
    13    7   10 1
    14    8    9 2
    15    8   22 1
    16   10   14 1
    17   10   11 1
    18   10   23 1
    19   11   12 2
    20   11   24 1
    21   12   13 1
    22   12   17 1
    23   13   14 1
    24   13   16 1
    25   13   25 1
    26   14   15 1
    27   14   26 1
    28   15   27 1
    29   16   28 1
    30   17   18 1
    31   17   29 1
    32   17   30 1
    33   18   31 1
    34   19   32 1
    35   19   33 1
@<TRIPOS>MOLECULE
CHEMBL284846__5
   33    35     0     0     0
SMALL
USER_CHARGES

@<TRIPOS>ATOM
      1 C1         -0.0168    1.3888    0.0097 C.ar      1 <0>        -0.2309
      2 C2          1.1684    2.0691    0.0020 C.ar      1 <0>         0.1531
      3 N1          2.3299    1.4347   -0.0129 N.ar      1 <0>        -0.5627
      4 C3          2.4134    0.1149   -0.0208 C.ar      1 <0>         0.4752
      5 C4          1.2446   -0.6613   -0.0134 C.ar      1 <0>        -0.0595
      6 C5          0.0021   -0.0041    0.0020 C.ar      1 <0>         0.1116
      7 N2         -0.9528   -0.9923    0.0054 N.pl3     1 <0>        -0.4673
      8 C6         -0.2992   -2.1879   -0.0075 C.2       1 <0>         0.2854
      9 N3          0.9874   -1.9923   -0.0176 N.2       1 <0>        -0.4827
     10 C7         -2.4046   -0.7967    0.0209 C.3       1 <0>         0.1687
     11 C8         -3.0454   -1.5184   -1.1418 C.2       1 <0>        -0.1382
     12 C9         -4.1120   -2.1677   -0.7617 C.2       1 <0>        -0.1570
     13 C10        -4.3604   -1.9873    0.7178 C.3       1 <0>         0.1081
     14 C11        -3.0229   -1.4507    1.2784 C.3       1 <0>         0.1058
     15 O1         -2.2024   -2.5181    1.7575 O.3       1 <0>        -0.5369
     16 O2         -4.6877   -3.2393    1.3239 O.3       1 <0>        -0.5505
     17 C12        -4.9819   -2.9889   -1.6783 C.3       1 <0>         0.1244
     18 O3         -4.4548   -2.9399   -3.0056 O.3       1 <0>        -0.5683
     19 N4          3.6572   -0.5024   -0.0369 N.pl3     1 <0>        -0.8350
     20 H1         -0.9550    1.9235    0.0260 H         1 <0>         0.1260
     21 H2          1.1569    3.1490    0.0079 H         1 <0>         0.1599
     22 H3         -0.7785   -3.1558   -0.0079 H         1 <0>         0.2115
     23 H4         -2.6442    0.2661   -0.0111 H         1 <0>         0.1261
     24 H5         -2.6703   -1.4991   -2.1544 H         1 <0>         0.1460
     25 H6         -5.1590   -1.2641    0.8833 H         1 <0>         0.0849
     26 H7         -3.1950   -0.7105    2.0598 H         1 <0>         0.0883
     27 H8         -2.5501   -2.9583    2.5451 H         1 <0>         0.3929
     28 H9         -5.4918   -3.6473    0.9744 H         1 <0>         0.3850
     29 H10        -4.9999   -4.0224   -1.3324 H         1 <0>         0.0657
     30 H11        -5.9950   -2.5868   -1.6745 H         1 <0>         0.0617
     31 H12        -4.9657   -3.4477   -3.6507 H         1 <0>         0.3888
     32 H13         4.4650    0.0345   -0.0424 H         1 <0>         0.4053
     33 H14         3.7181   -1.4705   -0.0427 H         1 <0>         0.4147
@<TRIPOS>BOND
     1    1    6 ar
     2    1    2 ar
     3    1   20 1
     4    2    3 ar
     5    2   21 1
     6    3    4 ar
     7    4    5 ar
     8    4   19 1
     9    5    9 1
    10    5    6 ar
    11    6    7 1
    12    7    8 1
    13    7   10 1
    14    8    9 2
    15    8   22 1
    16   10   14 1
    17   10   11 1
    18   10   23 1
    19   11   12 2
    20   11   24 1
    21   12   13 1
    22   12   17 1
    23   13   14 1
    24   13   16 1
    25   13   25 1
    26   14   15 1
    27   14   26 1
    28   15   27 1
    29   16   28 1
    30   17   18 1
    31   17   29 1
    32   17   30 1
    33   18   31 1
    34   19   32 1
    35   19   33 1
@<TRIPOS>MOLECULE
CHEMBL284846__6
   33    35     0     0     0
SMALL
USER_CHARGES

@<TRIPOS>ATOM
      1 C1         -0.0168    1.3888    0.0097 C.ar      1 <0>        -0.2273
      2 C2          1.1684    2.0691    0.0020 C.ar      1 <0>         0.1579
      3 N1          2.3299    1.4347   -0.0129 N.ar      1 <0>        -0.5613
      4 C3          2.4134    0.1149   -0.0208 C.ar      1 <0>         0.4778
      5 C4          1.2446   -0.6613   -0.0134 C.ar      1 <0>        -0.0656
      6 C5          0.0021   -0.0041    0.0020 C.ar      1 <0>         0.1256
      7 N2         -0.9528   -0.9923    0.0054 N.pl3     1 <0>        -0.4753
      8 C6         -0.2992   -2.1879   -0.0075 C.2       1 <0>         0.2389
      9 N3          0.9874   -1.9923   -0.0176 N.2       1 <0>        -0.4658
     10 C7         -2.4046   -0.7967    0.0209 C.3       1 <0>         0.1677
     11 C8         -3.0454   -1.5184   -1.1418 C.2       1 <0>        -0.1217
     12 C9         -4.1120   -2.1677   -0.7617 C.2       1 <0>        -0.1669
     13 C10        -4.3604   -1.9873    0.7178 C.3       1 <0>         0.1072
     14 C11        -3.0229   -1.4507    1.2784 C.3       1 <0>         0.1055
     15 O1         -3.2485   -0.4803    2.3028 O.3       1 <0>        -0.5356
     16 O2         -5.4073   -1.0392    0.9348 O.3       1 <0>        -0.5379
     17 C12        -4.9819   -2.9889   -1.6783 C.3       1 <0>         0.1255
     18 O3         -4.4548   -2.9399   -3.0056 O.3       1 <0>        -0.5690
     19 N4          3.6572   -0.5024   -0.0369 N.pl3     1 <0>        -0.8342
     20 H1         -0.9550    1.9235    0.0260 H         1 <0>         0.1295
     21 H2          1.1569    3.1490    0.0079 H         1 <0>         0.1622
     22 H3         -0.7785   -3.1558   -0.0079 H         1 <0>         0.2105
     23 H4         -2.6442    0.2661   -0.0111 H         1 <0>         0.1282
     24 H5         -2.6703   -1.4991   -2.1544 H         1 <0>         0.1490
     25 H6         -4.6100   -2.9423    1.1801 H         1 <0>         0.0760
     26 H7         -2.3971   -2.2648    1.6438 H         1 <0>         0.0908
     27 H8         -3.6354   -0.8443    3.1109 H         1 <0>         0.3885
     28 H9         -6.2592   -1.3011    0.5595 H         1 <0>         0.3823
     29 H10        -4.9999   -4.0224   -1.3324 H         1 <0>         0.0651
     30 H11        -5.9950   -2.5868   -1.6745 H         1 <0>         0.0622
     31 H12        -4.9657   -3.4477   -3.6507 H         1 <0>         0.3894
     32 H13         4.4650    0.0345   -0.0424 H         1 <0>         0.4062
     33 H14         3.7181   -1.4705   -0.0427 H         1 <0>         0.4146
@<TRIPOS>BOND
     1    1    6 ar
     2    1    2 ar
     3    1   20 1
     4    2    3 ar
     5    2   21 1
     6    3    4 ar
     7    4    5 ar
     8    4   19 1
     9    5    9 1
    10    5    6 ar
    11    6    7 1
    12    7    8 1
    13    7   10 1
    14    8    9 2
    15    8   22 1
    16   10   14 1
    17   10   11 1
    18   10   23 1
    19   11   12 2
    20   11   24 1
    21   12   13 1
    22   12   17 1
    23   13   14 1
    24   13   16 1
    25   13   25 1
    26   14   15 1
    27   14   26 1
    28   15   27 1
    29   16   28 1
    30   17   18 1
    31   17   29 1
    32   17   30 1
    33   18   31 1
    34   19   32 1
    35   19   33 1
@<TRIPOS>MOLECULE
CHEMBL284846__7
   33    35     0     0     0
SMALL
USER_CHARGES

@<TRIPOS>ATOM
      1 C1         -0.0168    1.3888    0.0097 C.ar      1 <0>        -0.2304
      2 C2          1.1684    2.0691    0.0020 C.ar      1 <0>         0.1536
      3 N1          2.3299    1.4347   -0.0129 N.ar      1 <0>        -0.5624
      4 C3          2.4134    0.1149   -0.0208 C.ar      1 <0>         0.4752
      5 C4          1.2446   -0.6613   -0.0134 C.ar      1 <0>        -0.0601
      6 C5          0.0021   -0.0041    0.0020 C.ar      1 <0>         0.1131
      7 N2         -0.9528   -0.9923    0.0054 N.pl3     1 <0>        -0.4685
      8 C6         -0.2992   -2.1879   -0.0075 C.2       1 <0>         0.2809
      9 N3          0.9874   -1.9923   -0.0176 N.2       1 <0>        -0.4814
     10 C7         -2.4046   -0.7967    0.0209 C.3       1 <0>         0.1731
     11 C8         -3.0454   -1.5184   -1.1418 C.2       1 <0>        -0.1242
     12 C9         -4.1120   -2.1677   -0.7617 C.2       1 <0>        -0.1657
     13 C10        -4.3604   -1.9873    0.7178 C.3       1 <0>         0.1096
     14 C11        -3.0229   -1.4507    1.2784 C.3       1 <0>         0.1012
     15 O1         -2.2024   -2.5181    1.7575 O.3       1 <0>        -0.5410
     16 O2         -5.4073   -1.0392    0.9348 O.3       1 <0>        -0.5502
     17 C12        -4.9819   -2.9889   -1.6783 C.3       1 <0>         0.1263
     18 O3         -4.4548   -2.9399   -3.0056 O.3       1 <0>        -0.5688
     19 N4          3.6572   -0.5024   -0.0369 N.pl3     1 <0>        -0.8351
     20 H1         -0.9550    1.9235    0.0260 H         1 <0>         0.1267
     21 H2          1.1569    3.1490    0.0079 H         1 <0>         0.1603
     22 H3         -0.7785   -3.1558   -0.0079 H         1 <0>         0.2108
     23 H4         -2.6442    0.2661   -0.0111 H         1 <0>         0.1269
     24 H5         -2.6703   -1.4991   -2.1544 H         1 <0>         0.1461
     25 H6         -4.6100   -2.9423    1.1801 H         1 <0>         0.0782
     26 H7         -3.1950   -0.7105    2.0598 H         1 <0>         0.0949
     27 H8         -2.5501   -2.9583    2.5451 H         1 <0>         0.3899
     28 H9         -6.2592   -1.3011    0.5595 H         1 <0>         0.3875
     29 H10        -4.9999   -4.0224   -1.3324 H         1 <0>         0.0642
     30 H11        -5.9950   -2.5868   -1.6745 H         1 <0>         0.0609
     31 H12        -4.9657   -3.4477   -3.6507 H         1 <0>         0.3888
     32 H13         4.4650    0.0345   -0.0424 H         1 <0>         0.4053
     33 H14         3.7181   -1.4705   -0.0427 H         1 <0>         0.4145
@<TRIPOS>BOND
     1    1    6 ar
     2    1    2 ar
     3    1   20 1
     4    2    3 ar
     5    2   21 1
     6    3    4 ar
     7    4    5 ar
     8    4   19 1
     9    5    9 1
    10    5    6 ar
    11    6    7 1
    12    7    8 1
    13    7   10 1
    14    8    9 2
    15    8   22 1
    16   10   14 1
    17   10   11 1
    18   10   23 1
    19   11   12 2
    20   11   24 1
    21   12   13 1
    22   12   17 1
    23   13   14 1
    24   13   16 1
    25   13   25 1
    26   14   15 1
    27   14   26 1
    28   15   27 1
    29   16   28 1
    30   17   18 1
    31   17   29 1
    32   17   30 1
    33   18   31 1
    34   19   32 1
    35   19   33 1
@<TRIPOS>MOLECULE
CHEMBL611907
   30    32     0     0     0
SMALL
USER_CHARGES

@<TRIPOS>ATOM
      1 C1         -0.0158    1.3119    0.0093 C.ar      1 <0>         0.3506
      2 N1          1.0888    2.0360    0.0026 N.ar      1 <0>        -0.5979
      3 C2          2.2875    1.4625   -0.0119 C.ar      1 <0>         0.5027
      4 C3          2.3582    0.0588   -0.0202 C.ar      1 <0>        -0.1026
      5 C4          1.1547   -0.6659   -0.0126 C.ar      1 <0>         0.3037
      6 N2          0.0021   -0.0041    0.0020 N.ar      1 <0>        -0.5552
      7 N3          1.5110   -1.9908   -0.0227 N.pl3     1 <0>        -0.4534
      8 C5          2.8729   -2.0476   -0.0358 C.2       1 <0>         0.2912
      9 N4          3.3680   -0.8441   -0.0343 N.2       1 <0>        -0.4792
     10 C6          0.5956   -3.1347   -0.0195 C.3       1 <0>         0.3040
     11 C7          0.1918   -3.4782    1.4304 C.3       1 <0>         0.0745
     12 H1         -0.7989   -3.0862    1.6604 H         1 <0>         0.0878
     13 C8          0.1808   -5.0311    1.4103 C.3       1 <0>         0.0693
     14 H2         -0.7670   -5.4124    1.0302 H         1 <0>         0.0816
     15 C9          1.3366   -5.3206    0.4198 C.3       1 <0>        -0.0149
     16 H3          2.2964   -5.2744    0.9344 H         1 <0>         0.0806
     17 O1          1.2511   -4.2831   -0.5700 O.3       1 <0>        -0.3309
     18 C10         1.1514   -6.6727   -0.2194 C.2       1 <0>         0.5003
     19 O2          0.9474   -6.7574   -1.4184 O.co2     1 <0>        -0.6653
     20 O3          1.2056   -7.6820    0.4625 O.co2     1 <0>        -0.6853
     21 O4          0.4650   -5.5650    2.7050 O.3       1 <0>        -0.5553
     22 O5          1.1597   -2.9844    2.3585 O.3       1 <0>        -0.5393
     23 N5          3.4393    2.2295   -0.0193 N.pl3     1 <0>        -0.8232
     24 H4         -0.9693    1.8187    0.0257 H         1 <0>         0.2003
     25 H5          3.4551   -2.9572   -0.0459 H         1 <0>         0.2165
     26 H6         -0.2923   -2.8991   -0.6062 H         1 <0>         0.1293
     27 H7          0.4686   -6.5314    2.7398 H         1 <0>         0.3987
     28 H8          0.9510   -3.1752    3.2832 H         1 <0>         0.3876
     29 H9          3.3774    3.1975   -0.0138 H         1 <0>         0.4063
     30 H10         4.3085    1.7992   -0.0299 H         1 <0>         0.4173
@<TRIPOS>BOND
     1    1    6 ar
     2    1    2 ar
     3    1   24 1
     4    2    3 ar
     5    3    4 ar
     6    3   23 1
     7    4    9 1
     8    4    5 ar
     9    5    6 ar
    10    5    7 1
    11    7    8 1
    12    7   10 1
    13    8    9 2
    14    8   25 1
    15   10   17 1
    16   10   11 1
    17   10   26 1
    18   11   12 1
    19   11   13 1
    20   11   22 1
    21   13   14 1
    22   13   15 1
    23   13   21 1
    24   15   16 1
    25   15   17 1
    26   15   18 1
    27   18   19 2
    28   18   20 1
    29   21   27 1
    30   22   28 1
    31   23   29 1
    32   23   30 1
@<TRIPOS>MOLECULE
CHEMBL611907__1
   30    32     0     0     0
SMALL
USER_CHARGES

@<TRIPOS>ATOM
      1 C1         -0.0158    1.3119    0.0093 C.ar      1 <0>         0.3528
      2 N1          1.0888    2.0360    0.0026 N.ar      1 <0>        -0.5957
      3 C2          2.2875    1.4625   -0.0119 C.ar      1 <0>         0.5037
      4 C3          2.3582    0.0588   -0.0202 C.ar      1 <0>        -0.1062
      5 C4          1.1547   -0.6659   -0.0126 C.ar      1 <0>         0.3060
      6 N2          0.0021   -0.0041    0.0020 N.ar      1 <0>        -0.5433
      7 N3          1.5110   -1.9908   -0.0227 N.pl3     1 <0>        -0.4623
      8 C5          2.8729   -2.0476   -0.0358 C.2       1 <0>         0.2788
      9 N4          3.3680   -0.8441   -0.0343 N.2       1 <0>        -0.4730
     10 C6          0.5956   -3.1347   -0.0195 C.3       1 <0>         0.3017
     11 C7          0.2093   -3.5183   -1.4652 C.3       1 <0>         0.0779
     12 H1          0.9741   -3.1842   -2.1663 H         1 <0>         0.0763
     13 C8          0.1372   -5.0615   -1.4375 C.3       1 <0>         0.0687
     14 H2          0.8663   -5.4903   -2.1250 H         1 <0>         0.0777
     15 C9          0.4884   -5.4276    0.0216 C.3       1 <0>        -0.0164
     16 H3         -0.4201   -5.5508    0.6111 H         1 <0>         0.0830
     17 O1          1.2558   -4.3054    0.5091 O.3       1 <0>        -0.3304
     18 C10         1.3139   -6.6878    0.0621 C.2       1 <0>         0.5057
     19 O2          2.4650   -6.6499    0.4620 O.co2     1 <0>        -0.6641
     20 O3          0.8305   -7.7452   -0.3051 O.co2     1 <0>        -0.6826
     21 O4         -1.1805   -5.5071   -1.7652 O.3       1 <0>        -0.5526
     22 O5         -1.0609   -2.9610   -1.8087 O.3       1 <0>        -0.5322
     23 N5          3.4393    2.2295   -0.0193 N.pl3     1 <0>        -0.8222
     24 H4         -0.9693    1.8187    0.0257 H         1 <0>         0.2022
     25 H5          3.4551   -2.9572   -0.0459 H         1 <0>         0.2290
     26 H6         -0.2954   -2.9051    0.5649 H         1 <0>         0.1153
     27 H7         -1.2824   -6.4687   -1.7627 H         1 <0>         0.3929
     28 H8         -1.3526   -3.1708   -2.7065 H         1 <0>         0.3843
     29 H9          3.3774    3.1975   -0.0138 H         1 <0>         0.4072
     30 H10         4.3085    1.7992   -0.0299 H         1 <0>         0.4177
@<TRIPOS>BOND
     1    1    6 ar
     2    1    2 ar
     3    1   24 1
     4    2    3 ar
     5    3    4 ar
     6    3   23 1
     7    4    9 1
     8    4    5 ar
     9    5    6 ar
    10    5    7 1
    11    7    8 1
    12    7   10 1
    13    8    9 2
    14    8   25 1
    15   10   17 1
    16   10   11 1
    17   10   26 1
    18   11   12 1
    19   11   13 1
    20   11   22 1
    21   13   14 1
    22   13   15 1
    23   13   21 1
    24   15   16 1
    25   15   17 1
    26   15   18 1
    27   18   19 2
    28   18   20 1
    29   21   27 1
    30   22   28 1
    31   23   29 1
    32   23   30 1
@<TRIPOS>MOLECULE
CHEMBL8275
   31    33     0     0     0
SMALL
USER_CHARGES

@<TRIPOS>ATOM
      1 C1         -0.0158    1.3119    0.0093 C.ar      1 <0>         0.3617
      2 N1          1.0888    2.0360    0.0026 N.ar      1 <0>        -0.5941
      3 C2          2.2875    1.4625   -0.0119 C.ar      1 <0>         0.5065
      4 C3          2.3582    0.0588   -0.0202 C.ar      1 <0>        -0.1080
      5 C4          1.1547   -0.6659   -0.0126 C.ar      1 <0>         0.3015
      6 N2          0.0021   -0.0041    0.0020 N.ar      1 <0>        -0.5610
      7 N3          1.5110   -1.9908   -0.0227 N.pl3     1 <0>        -0.4524
      8 C5          2.8729   -2.0476   -0.0358 C.2       1 <0>         0.2788
      9 N4          3.3680   -0.8441   -0.0343 N.2       1 <0>        -0.4696
     10 C6          0.5956   -3.1347   -0.0195 C.3       1 <0>         0.1535
     11 C7          0.8908   -4.0443    1.1909 C.3       1 <0>        -0.1274
     12 C8          0.6730   -5.4792    0.6498 C.3       1 <0>         0.0714
     13 C9          1.2412   -5.3920   -0.7884 C.3       1 <0>         0.0347
     14 C10         0.8184   -3.9915   -1.2780 C.3       1 <0>         0.1033
     15 O1          1.8530   -3.4210   -2.0818 O.3       1 <0>        -0.5527
     16 O2          0.6663   -6.4056   -1.6156 O.3       1 <0>        -0.5542
     17 O3         -0.7180   -5.8056    0.6259 O.3       1 <0>        -0.5470
     18 N5          3.4393    2.2295   -0.0193 N.pl3     1 <0>        -0.8191
     19 H1         -0.9693    1.8187    0.0257 H         1 <0>         0.2038
     20 H2          3.4551   -2.9572   -0.0459 H         1 <0>         0.2136
     21 H3         -0.4366   -2.7864    0.0172 H         1 <0>         0.1255
     22 H4          1.9206   -3.9143    1.5237 H         1 <0>         0.0969
     23 H5          0.1966   -3.8339    2.0045 H         1 <0>         0.0982
     24 H6          1.2309   -6.2043    1.2423 H         1 <0>         0.0789
     25 H7          2.3276   -5.4797   -0.7754 H         1 <0>         0.0852
     26 H8         -0.1059   -4.0598   -1.8517 H         1 <0>         0.0870
     27 H9          2.0407   -3.9162   -2.8909 H         1 <0>         0.3886
     28 H10         0.8520   -7.3072   -1.3193 H         1 <0>         0.3835
     29 H11        -0.9078   -6.6942    0.2949 H         1 <0>         0.3847
     30 H12         3.3774    3.1975   -0.0138 H         1 <0>         0.4098
     31 H13         4.3085    1.7992   -0.0299 H         1 <0>         0.4183
@<TRIPOS>BOND
     1    1    6 ar
     2    1    2 ar
     3    1   19 1
     4    2    3 ar
     5    3    4 ar
     6    3   18 1
     7    4    9 1
     8    4    5 ar
     9    5    6 ar
    10    5    7 1
    11    7    8 1
    12    7   10 1
    13    8    9 2
    14    8   20 1
    15   10   14 1
    16   10   11 1
    17   10   21 1
    18   11   12 1
    19   11   22 1
    20   11   23 1
    21   12   13 1
    22   12   17 1
    23   12   24 1
    24   13   14 1
    25   13   16 1
    26   13   25 1
    27   14   15 1
    28   14   26 1
    29   15   27 1
    30   16   28 1
    31   17   29 1
    32   18   30 1
    33   18   31 1
@<TRIPOS>MOLECULE
CHEMBL8275__1
   31    33     0     0     0
SMALL
USER_CHARGES

@<TRIPOS>ATOM
      1 C1         -0.0158    1.3119    0.0093 C.ar      1 <0>         0.3678
      2 N1          1.0888    2.0360    0.0026 N.ar      1 <0>        -0.5927
      3 C2          2.2875    1.4625   -0.0119 C.ar      1 <0>         0.5103
      4 C3          2.3582    0.0588   -0.0202 C.ar      1 <0>        -0.1141
      5 C4          1.1547   -0.6659   -0.0126 C.ar      1 <0>         0.3090
      6 N2          0.0021   -0.0041    0.0020 N.ar      1 <0>        -0.5575
      7 N3          1.5110   -1.9908   -0.0227 N.pl3     1 <0>        -0.4669
      8 C5          2.8729   -2.0476   -0.0358 C.2       1 <0>         0.2416
      9 N4          3.3680   -0.8441   -0.0343 N.2       1 <0>        -0.4558
     10 C6          0.5956   -3.1347   -0.0195 C.3       1 <0>         0.1452
     11 C7          0.8908   -4.0443    1.1909 C.3       1 <0>        -0.1238
     12 C8          0.6730   -5.4792    0.6498 C.3       1 <0>         0.0736
     13 C9          1.2412   -5.3920   -0.7884 C.3       1 <0>         0.0348
     14 C10         0.8184   -3.9915   -1.2780 C.3       1 <0>         0.1106
     15 O1         -0.3934   -4.0811   -2.0301 O.3       1 <0>        -0.5378
     16 O2          0.6663   -6.4056   -1.6156 O.3       1 <0>        -0.5499
     17 O3         -0.7180   -5.8056    0.6259 O.3       1 <0>        -0.5399
     18 N5          3.4393    2.2295   -0.0193 N.pl3     1 <0>        -0.8171
     19 H1         -0.9693    1.8187    0.0257 H         1 <0>         0.2062
     20 H2          3.4551   -2.9572   -0.0459 H         1 <0>         0.2190
     21 H3         -0.4366   -2.7864    0.0172 H         1 <0>         0.1322
     22 H4          1.9206   -3.9143    1.5237 H         1 <0>         0.0956
     23 H5          0.1966   -3.8339    2.0045 H         1 <0>         0.0984
     24 H6          1.2309   -6.2043    1.2423 H         1 <0>         0.0756
     25 H7          2.3276   -5.4797   -0.7754 H         1 <0>         0.0804
     26 H8          1.6076   -3.5563   -1.8911 H         1 <0>         0.0692
     27 H9         -0.3176   -4.6092   -2.8366 H         1 <0>         0.3887
     28 H10         0.8520   -7.3072   -1.3193 H         1 <0>         0.3849
     29 H11        -0.9078   -6.6942    0.2949 H         1 <0>         0.3824
     30 H12         3.3774    3.1975   -0.0138 H         1 <0>         0.4111
     31 H13         4.3085    1.7992   -0.0299 H         1 <0>         0.4188
@<TRIPOS>BOND
     1    1    6 ar
     2    1    2 ar
     3    1   19 1
     4    2    3 ar
     5    3    4 ar
     6    3   18 1
     7    4    9 1
     8    4    5 ar
     9    5    6 ar
    10    5    7 1
    11    7    8 1
    12    7   10 1
    13    8    9 2
    14    8   20 1
    15   10   14 1
    16   10   11 1
    17   10   21 1
    18   11   12 1
    19   11   22 1
    20   11   23 1
    21   12   13 1
    22   12   17 1
    23   12   24 1
    24   13   14 1
    25   13   16 1
    26   13   25 1
    27   14   15 1
    28   14   26 1
    29   15   27 1
    30   16   28 1
    31   17   29 1
    32   18   30 1
    33   18   31 1
@<TRIPOS>MOLECULE
CHEMBL8275__2
   31    33     0     0     0
SMALL
USER_CHARGES

@<TRIPOS>ATOM
      1 C1          0.0377    1.2709    0.6336 C.ar      1 <0>         0.3619
      2 N1          1.1356    2.0001    0.5483 N.ar      1 <0>        -0.5942
      3 C2          2.3130    1.4429    0.2856 C.ar      1 <0>         0.5073
      4 C3          2.3684    0.0510    0.0985 C.ar      1 <0>        -0.1086
      5 C4          1.1728   -0.6799    0.1995 C.ar      1 <0>         0.3038
      6 N2          0.0417   -0.0345    0.4660 N.ar      1 <0>        -0.5608
      7 N3          1.5110   -1.9908   -0.0227 N.pl3     1 <0>        -0.4485
      8 C5          2.8549   -2.0339   -0.2465 C.2       1 <0>         0.2720
      9 N4          3.3561   -0.8349   -0.1749 N.2       1 <0>        -0.4681
     10 C6          0.5956   -3.1347   -0.0195 C.3       1 <0>         0.1446
     11 C7          0.9992   -4.1489    1.0794 C.3       1 <0>        -0.1253
     12 C8          2.1536   -4.9359    0.4107 C.3       1 <0>         0.0616
     13 C9          1.7129   -5.0765   -1.0610 C.3       1 <0>         0.0301
     14 C10         0.7223   -3.9312   -1.3345 C.3       1 <0>         0.1020
     15 O1          1.2248   -3.0867   -2.3719 O.3       1 <0>        -0.5370
     16 O2          2.8457   -4.9606   -1.9244 O.3       1 <0>        -0.5502
     17 O3          2.2971   -6.2229    1.0149 O.3       1 <0>        -0.5540
     18 N5          3.4580    2.2152    0.1977 N.pl3     1 <0>        -0.8188
     19 H1         -0.8978    1.7638    0.8535 H         1 <0>         0.2039
     20 H2          3.4204   -2.9306   -0.4528 H         1 <0>         0.2148
     21 H3         -0.4314   -2.7998    0.1262 H         1 <0>         0.1283
     22 H4          1.3507   -3.6317    1.9721 H         1 <0>         0.0931
     23 H5          0.1673   -4.8115    1.3178 H         1 <0>         0.1086
     24 H6          3.0862   -4.3758    0.4778 H         1 <0>         0.0780
     25 H7          1.2232   -6.0382   -1.2139 H         1 <0>         0.0829
     26 H8         -0.2481   -4.3371   -1.6202 H         1 <0>         0.0900
     27 H9          1.3271   -3.5301   -3.2252 H         1 <0>         0.3885
     28 H10         3.5172   -5.6425   -1.7858 H         1 <0>         0.3834
     29 H11         3.0063   -6.7591    0.6345 H         1 <0>         0.3823
     30 H12         3.4068    3.1749    0.3284 H         1 <0>         0.4099
     31 H13         4.3117    1.7967    0.0053 H         1 <0>         0.4185
@<TRIPOS>BOND
     1    1    6 ar
     2    1    2 ar
     3    1   19 1
     4    2    3 ar
     5    3    4 ar
     6    3   18 1
     7    4    9 1
     8    4    5 ar
     9    5    6 ar
    10    5    7 1
    11    7    8 1
    12    7   10 1
    13    8    9 2
    14    8   20 1
    15   10   14 1
    16   10   11 1
    17   10   21 1
    18   11   12 1
    19   11   22 1
    20   11   23 1
    21   12   13 1
    22   12   17 1
    23   12   24 1
    24   13   14 1
    25   13   16 1
    26   13   25 1
    27   14   15 1
    28   14   26 1
    29   15   27 1
    30   16   28 1
    31   17   29 1
    32   18   30 1
    33   18   31 1
@<TRIPOS>MOLECULE
CHEMBL8275__3
   31    33     0     0     0
SMALL
USER_CHARGES

@<TRIPOS>ATOM
      1 C1         -0.0158    1.3119    0.0093 C.ar      1 <0>         0.3665
      2 N1          1.0888    2.0360    0.0026 N.ar      1 <0>        -0.5932
      3 C2          2.2875    1.4625   -0.0119 C.ar      1 <0>         0.5099
      4 C3          2.3582    0.0588   -0.0202 C.ar      1 <0>        -0.1139
      5 C4          1.1547   -0.6659   -0.0126 C.ar      1 <0>         0.3114
      6 N2          0.0021   -0.0041    0.0020 N.ar      1 <0>        -0.5570
      7 N3          1.5110   -1.9908   -0.0227 N.pl3     1 <0>        -0.4622
      8 C5          2.8729   -2.0476   -0.0358 C.2       1 <0>         0.2445
      9 N4          3.3680   -0.8441   -0.0343 N.2       1 <0>        -0.4567
     10 C6          0.5956   -3.1347   -0.0195 C.3       1 <0>         0.1491
     11 C7          0.9393   -4.1095    1.1340 C.3       1 <0>        -0.1227
     12 C8          0.3670   -5.4641    0.6678 C.3       1 <0>         0.0751
     13 C9          0.2821   -5.4004   -0.8673 C.3       1 <0>         0.0362
     14 C10         0.8058   -4.0094   -1.2803 C.3       1 <0>         0.1028
     15 O1          0.0483   -3.4954   -2.3776 O.3       1 <0>        -0.5492
     16 O2          1.0973   -6.4219   -1.4454 O.3       1 <0>        -0.5589
     17 O3         -0.9351   -5.6622    1.2222 O.3       1 <0>        -0.5560
     18 N5          3.4393    2.2295   -0.0193 N.pl3     1 <0>        -0.8175
     19 H1         -0.9693    1.8187    0.0257 H         1 <0>         0.2056
     20 H2          3.4551   -2.9572   -0.0459 H         1 <0>         0.2198
     21 H3         -0.4392   -2.7992    0.0498 H         1 <0>         0.1313
     22 H4          2.0190   -4.1771    1.2674 H         1 <0>         0.0963
     23 H5          0.4589   -3.7905    2.0590 H         1 <0>         0.1005
     24 H6          1.0300   -6.2741    0.9718 H         1 <0>         0.0813
     25 H7         -0.7523   -5.5207   -1.1894 H         1 <0>         0.0866
     26 H8          1.8639   -4.0609   -1.5369 H         1 <0>         0.0836
     27 H9          0.1428   -4.0052   -3.1939 H         1 <0>         0.3879
     28 H10         0.8314   -7.3201   -1.2054 H         1 <0>         0.3857
     29 H11        -1.3488   -6.4978    0.9657 H         1 <0>         0.3835
     30 H12         3.3774    3.1975   -0.0138 H         1 <0>         0.4109
     31 H13         4.3085    1.7992   -0.0299 H         1 <0>         0.4188
@<TRIPOS>BOND
     1    1    6 ar
     2    1    2 ar
     3    1   19 1
     4    2    3 ar
     5    3    4 ar
     6    3   18 1
     7    4    9 1
     8    4    5 ar
     9    5    6 ar
    10    5    7 1
    11    7    8 1
    12    7   10 1
    13    8    9 2
    14    8   20 1
    15   10   14 1
    16   10   11 1
    17   10   21 1
    18   11   12 1
    19   11   22 1
    20   11   23 1
    21   12   13 1
    22   12   17 1
    23   12   24 1
    24   13   14 1
    25   13   16 1
    26   13   25 1
    27   14   15 1
    28   14   26 1
    29   15   27 1
    30   16   28 1
    31   17   29 1
    32   18   30 1
    33   18   31 1
@<TRIPOS>MOLECULE
CHEMBL8275__4
   31    33     0     0     0
SMALL
USER_CHARGES

@<TRIPOS>ATOM
      1 C1         -0.0158    1.3119    0.0093 C.ar      1 <0>         0.3619
      2 N1          1.0888    2.0360    0.0026 N.ar      1 <0>        -0.5939
      3 C2          2.2875    1.4625   -0.0119 C.ar      1 <0>         0.5069
      4 C3          2.3582    0.0588   -0.0202 C.ar      1 <0>        -0.1073
      5 C4          1.1547   -0.6659   -0.0126 C.ar      1 <0>         0.3011
      6 N2          0.0021   -0.0041    0.0020 N.ar      1 <0>        -0.5620
      7 N3          1.5110   -1.9908   -0.0227 N.pl3     1 <0>        -0.4516
      8 C5          2.8729   -2.0476   -0.0358 C.2       1 <0>         0.2824
      9 N4          3.3680   -0.8441   -0.0343 N.2       1 <0>        -0.4691
     10 C6          0.5956   -3.1347   -0.0195 C.3       1 <0>         0.1517
     11 C7          0.8908   -4.0443    1.1909 C.3       1 <0>        -0.1273
     12 C8          0.6730   -5.4792    0.6498 C.3       1 <0>         0.0715
     13 C9          1.2412   -5.3920   -0.7884 C.3       1 <0>         0.0333
     14 C10         0.8184   -3.9915   -1.2780 C.3       1 <0>         0.1002
     15 O1          1.8530   -3.4210   -2.0818 O.3       1 <0>        -0.5495
     16 O2          0.6663   -6.4056   -1.6156 O.3       1 <0>        -0.5584
     17 O3          1.4044   -6.4298    1.4266 O.3       1 <0>        -0.5535
     18 N5          3.4393    2.2295   -0.0193 N.pl3     1 <0>        -0.8186
     19 H1         -0.9693    1.8187    0.0257 H         1 <0>         0.2039
     20 H2          3.4551   -2.9572   -0.0459 H         1 <0>         0.2142
     21 H3         -0.4366   -2.7864    0.0172 H         1 <0>         0.1269
     22 H4          1.9206   -3.9143    1.5237 H         1 <0>         0.0947
     23 H5          0.1966   -3.8339    2.0045 H         1 <0>         0.0953
     24 H6         -0.3880   -5.7282    0.6316 H         1 <0>         0.0849
     25 H7          2.3276   -5.4797   -0.7754 H         1 <0>         0.0878
     26 H8         -0.1059   -4.0598   -1.8517 H         1 <0>         0.0883
     27 H9          2.0407   -3.9162   -2.8909 H         1 <0>         0.3899
     28 H10         0.8520   -7.3072   -1.3193 H         1 <0>         0.3845
     29 H11         1.3015   -7.3439    1.1283 H         1 <0>         0.3832
     30 H12         3.3774    3.1975   -0.0138 H         1 <0>         0.4100
     31 H13         4.3085    1.7992   -0.0299 H         1 <0>         0.4186
@<TRIPOS>BOND
     1    1    6 ar
     2    1    2 ar
     3    1   19 1
     4    2    3 ar
     5    3    4 ar
     6    3   18 1
     7    4    9 1
     8    4    5 ar
     9    5    6 ar
    10    5    7 1
    11    7    8 1
    12    7   10 1
    13    8    9 2
    14    8   20 1
    15   10   14 1
    16   10   11 1
    17   10   21 1
    18   11   12 1
    19   11   22 1
    20   11   23 1
    21   12   13 1
    22   12   17 1
    23   12   24 1
    24   13   14 1
    25   13   16 1
    26   13   25 1
    27   14   15 1
    28   14   26 1
    29   15   27 1
    30   16   28 1
    31   17   29 1
    32   18   30 1
    33   18   31 1
@<TRIPOS>MOLECULE
CHEMBL8275__5
   31    33     0     0     0
SMALL
USER_CHARGES

@<TRIPOS>ATOM
      1 C1         -0.0158    1.3119    0.0093 C.ar      1 <0>         0.3681
      2 N1          1.0888    2.0360    0.0026 N.ar      1 <0>        -0.5925
      3 C2          2.2875    1.4625   -0.0119 C.ar      1 <0>         0.5107
      4 C3          2.3582    0.0588   -0.0202 C.ar      1 <0>        -0.1134
      5 C4          1.1547   -0.6659   -0.0126 C.ar      1 <0>         0.3087
      6 N2          0.0021   -0.0041    0.0020 N.ar      1 <0>        -0.5585
      7 N3          1.5110   -1.9908   -0.0227 N.pl3     1 <0>        -0.4664
      8 C5          2.8729   -2.0476   -0.0358 C.2       1 <0>         0.2451
      9 N4          3.3680   -0.8441   -0.0343 N.2       1 <0>        -0.4551
     10 C6          0.5956   -3.1347   -0.0195 C.3       1 <0>         0.1450
     11 C7          0.8908   -4.0443    1.1909 C.3       1 <0>        -0.1228
     12 C8          0.6730   -5.4792    0.6498 C.3       1 <0>         0.0728
     13 C9          1.2412   -5.3920   -0.7884 C.3       1 <0>         0.0364
     14 C10         0.8184   -3.9915   -1.2780 C.3       1 <0>         0.1058
     15 O1         -0.3934   -4.0811   -2.0301 O.3       1 <0>        -0.5439
     16 O2          0.6663   -6.4056   -1.6156 O.3       1 <0>        -0.5542
     17 O3          1.4044   -6.4298    1.4266 O.3       1 <0>        -0.5556
     18 N5          3.4393    2.2295   -0.0193 N.pl3     1 <0>        -0.8167
     19 H1         -0.9693    1.8187    0.0257 H         1 <0>         0.2064
     20 H2          3.4551   -2.9572   -0.0459 H         1 <0>         0.2196
     21 H3         -0.4366   -2.7864    0.0172 H         1 <0>         0.1332
     22 H4          1.9206   -3.9143    1.5237 H         1 <0>         0.0938
     23 H5          0.1966   -3.8339    2.0045 H         1 <0>         0.0959
     24 H6         -0.3880   -5.7282    0.6316 H         1 <0>         0.0865
     25 H7          2.3276   -5.4797   -0.7754 H         1 <0>         0.0834
     26 H8          1.6076   -3.5563   -1.8911 H         1 <0>         0.0751
     27 H9         -0.3176   -4.6092   -2.8366 H         1 <0>         0.3929
     28 H10         0.8520   -7.3072   -1.3193 H         1 <0>         0.3860
     29 H11         1.3015   -7.3439    1.1283 H         1 <0>         0.3830
     30 H12         3.3774    3.1975   -0.0138 H         1 <0>         0.4113
     31 H13         4.3085    1.7992   -0.0299 H         1 <0>         0.4191
@<TRIPOS>BOND
     1    1    6 ar
     2    1    2 ar
     3    1   19 1
     4    2    3 ar
     5    3    4 ar
     6    3   18 1
     7    4    9 1
     8    4    5 ar
     9    5    6 ar
    10    5    7 1
    11    7    8 1
    12    7   10 1
    13    8    9 2
    14    8   20 1
    15   10   14 1
    16   10   11 1
    17   10   21 1
    18   11   12 1
    19   11   22 1
    20   11   23 1
    21   12   13 1
    22   12   17 1
    23   12   24 1
    24   13   14 1
    25   13   16 1
    26   13   25 1
    27   14   15 1
    28   14   26 1
    29   15   27 1
    30   16   28 1
    31   17   29 1
    32   18   30 1
    33   18   31 1
@<TRIPOS>MOLECULE
CHEMBL8275__6
   31    33     0     0     0
SMALL
USER_CHARGES

@<TRIPOS>ATOM
      1 C1         -0.0158    1.3119    0.0093 C.ar      1 <0>         0.3587
      2 N1          1.0888    2.0360    0.0026 N.ar      1 <0>        -0.5944
      3 C2          2.2875    1.4625   -0.0119 C.ar      1 <0>         0.5052
      4 C3          2.3582    0.0588   -0.0202 C.ar      1 <0>        -0.1059
      5 C4          1.1547   -0.6659   -0.0126 C.ar      1 <0>         0.2964
      6 N2          0.0021   -0.0041    0.0020 N.ar      1 <0>        -0.5620
      7 N3          1.5110   -1.9908   -0.0227 N.pl3     1 <0>        -0.4496
      8 C5          2.8729   -2.0476   -0.0358 C.2       1 <0>         0.2930
      9 N4          3.3680   -0.8441   -0.0343 N.2       1 <0>        -0.4754
     10 C6          0.5956   -3.1347   -0.0195 C.3       1 <0>         0.1480
     11 C7          0.8908   -4.0443    1.1909 C.3       1 <0>        -0.1236
     12 C8          0.6730   -5.4792    0.6498 C.3       1 <0>         0.0705
     13 C9          1.2412   -5.3920   -0.7884 C.3       1 <0>         0.0343
     14 C10         0.8184   -3.9915   -1.2780 C.3       1 <0>         0.0999
     15 O1          1.8530   -3.4210   -2.0818 O.3       1 <0>        -0.5366
     16 O2          2.6655   -5.5069   -0.7713 O.3       1 <0>        -0.5375
     17 O3          1.4044   -6.4298    1.4266 O.3       1 <0>        -0.5501
     18 N5          3.4393    2.2295   -0.0193 N.pl3     1 <0>        -0.8195
     19 H1         -0.9693    1.8187    0.0257 H         1 <0>         0.2028
     20 H2          3.4551   -2.9572   -0.0459 H         1 <0>         0.2191
     21 H3         -0.4366   -2.7864    0.0172 H         1 <0>         0.1221
     22 H4          1.9206   -3.9143    1.5237 H         1 <0>         0.0951
     23 H5          0.1966   -3.8339    2.0045 H         1 <0>         0.0898
     24 H6         -0.3880   -5.7282    0.6316 H         1 <0>         0.0812
     25 H7          0.8027   -6.1652   -1.4194 H         1 <0>         0.0722
     26 H8         -0.1059   -4.0598   -1.8517 H         1 <0>         0.0868
     27 H9          2.0407   -3.9162   -2.8909 H         1 <0>         0.3862
     28 H10         2.9881   -6.3469   -0.4171 H         1 <0>         0.3830
     29 H11         1.3015   -7.3439    1.1283 H         1 <0>         0.3825
     30 H12         3.3774    3.1975   -0.0138 H         1 <0>         0.4094
     31 H13         4.3085    1.7992   -0.0299 H         1 <0>         0.4185
@<TRIPOS>BOND
     1    1    6 ar
     2    1    2 ar
     3    1   19 1
     4    2    3 ar
     5    3    4 ar
     6    3   18 1
     7    4    9 1
     8    4    5 ar
     9    5    6 ar
    10    5    7 1
    11    7    8 1
    12    7   10 1
    13    8    9 2
    14    8   20 1
    15   10   14 1
    16   10   11 1
    17   10   21 1
    18   11   12 1
    19   11   22 1
    20   11   23 1
    21   12   13 1
    22   12   17 1
    23   12   24 1
    24   13   14 1
    25   13   16 1
    26   13   25 1
    27   14   15 1
    28   14   26 1
    29   15   27 1
    30   16   28 1
    31   17   29 1
    32   18   30 1
    33   18   31 1
@<TRIPOS>MOLECULE
CHEMBL8275__7
   31    33     0     0     0
SMALL
USER_CHARGES

@<TRIPOS>ATOM
      1 C1         -0.0158    1.3119    0.0093 C.ar      1 <0>         0.3653
      2 N1          1.0888    2.0360    0.0026 N.ar      1 <0>        -0.5928
      3 C2          2.2875    1.4625   -0.0119 C.ar      1 <0>         0.5094
      4 C3          2.3582    0.0588   -0.0202 C.ar      1 <0>        -0.1121
      5 C4          1.1547   -0.6659   -0.0126 C.ar      1 <0>         0.3043
      6 N2          0.0021   -0.0041    0.0020 N.ar      1 <0>        -0.5585
      7 N3          1.5110   -1.9908   -0.0227 N.pl3     1 <0>        -0.4650
      8 C5          2.8729   -2.0476   -0.0358 C.2       1 <0>         0.2555
      9 N4          3.3680   -0.8441   -0.0343 N.2       1 <0>        -0.4603
     10 C6          0.5956   -3.1347   -0.0195 C.3       1 <0>         0.1493
     11 C7          0.8908   -4.0443    1.1909 C.3       1 <0>        -0.1201
     12 C8          0.6730   -5.4792    0.6498 C.3       1 <0>         0.0734
     13 C9          1.2412   -5.3920   -0.7884 C.3       1 <0>         0.0389
     14 C10         0.8184   -3.9915   -1.2780 C.3       1 <0>         0.0991
     15 O1         -0.3934   -4.0811   -2.0301 O.3       1 <0>        -0.5473
     16 O2          2.6655   -5.5069   -0.7713 O.3       1 <0>        -0.5490
     17 O3          1.4044   -6.4298    1.4266 O.3       1 <0>        -0.5518
     18 N5          3.4393    2.2295   -0.0193 N.pl3     1 <0>        -0.8173
     19 H1         -0.9693    1.8187    0.0257 H         1 <0>         0.2056
     20 H2          3.4551   -2.9572   -0.0459 H         1 <0>         0.2241
     21 H3         -0.4366   -2.7864    0.0172 H         1 <0>         0.1297
     22 H4          1.9206   -3.9143    1.5237 H         1 <0>         0.0950
     23 H5          0.1966   -3.8339    2.0045 H         1 <0>         0.0920
     24 H6         -0.3880   -5.7282    0.6316 H         1 <0>         0.0840
     25 H7          0.8027   -6.1652   -1.4194 H         1 <0>         0.0760
     26 H8          1.6076   -3.5563   -1.8911 H         1 <0>         0.0827
     27 H9         -0.3176   -4.6092   -2.8366 H         1 <0>         0.3890
     28 H10         2.9881   -6.3469   -0.4171 H         1 <0>         0.3884
     29 H11         1.3015   -7.3439    1.1283 H         1 <0>         0.3827
     30 H12         3.3774    3.1975   -0.0138 H         1 <0>         0.4108
     31 H13         4.3085    1.7992   -0.0299 H         1 <0>         0.4190
@<TRIPOS>BOND
     1    1    6 ar
     2    1    2 ar
     3    1   19 1
     4    2    3 ar
     5    3    4 ar
     6    3   18 1
     7    4    9 1
     8    4    5 ar
     9    5    6 ar
    10    5    7 1
    11    7    8 1
    12    7   10 1
    13    8    9 2
    14    8   20 1
    15   10   14 1
    16   10   11 1
    17   10   21 1
    18   11   12 1
    19   11   22 1
    20   11   23 1
    21   12   13 1
    22   12   17 1
    23   12   24 1
    24   13   14 1
    25   13   16 1
    26   13   25 1
    27   14   15 1
    28   14   26 1
    29   15   27 1
    30   16   28 1
    31   17   29 1
    32   18   30 1
    33   18   31 1
@<TRIPOS>MOLECULE
CHEMBL8275__8
   31    33     0     0     0
SMALL
USER_CHARGES

@<TRIPOS>ATOM
      1 C1         -0.0158    1.3119    0.0093 C.ar      1 <0>         0.3663
      2 N1          1.0888    2.0360    0.0026 N.ar      1 <0>        -0.5930
      3 C2          2.2875    1.4625   -0.0119 C.ar      1 <0>         0.5101
      4 C3          2.3582    0.0588   -0.0202 C.ar      1 <0>        -0.1131
      5 C4          1.1547   -0.6659   -0.0126 C.ar      1 <0>         0.3086
      6 N2          0.0021   -0.0041    0.0020 N.ar      1 <0>        -0.5579
      7 N3          1.5110   -1.9908   -0.0227 N.pl3     1 <0>        -0.4635
      8 C5          2.8729   -2.0476   -0.0358 C.2       1 <0>         0.2491
      9 N4          3.3680   -0.8441   -0.0343 N.2       1 <0>        -0.4571
     10 C6          0.5956   -3.1347   -0.0195 C.3       1 <0>         0.1488
     11 C7          0.8987   -4.0748   -1.2125 C.3       1 <0>        -0.1201
     12 C8          0.3250   -5.4313   -0.7330 C.3       1 <0>         0.0740
     13 C9          0.6625   -5.4742    0.7717 C.3       1 <0>         0.0381
     14 C10         0.8346   -4.0139    1.2253 C.3       1 <0>         0.0994
     15 O1         -0.1237   -3.6997    2.2378 O.3       1 <0>        -0.5504
     16 O2          1.8768   -6.1979    0.9805 O.3       1 <0>        -0.5485
     17 O3          0.9590   -6.5129   -1.4188 O.3       1 <0>        -0.5480
     18 N5          3.4393    2.2295   -0.0193 N.pl3     1 <0>        -0.8172
     19 H1         -0.9693    1.8187    0.0257 H         1 <0>         0.2057
     20 H2          3.4551   -2.9572   -0.0459 H         1 <0>         0.2212
     21 H3         -0.4392   -2.7940   -0.0530 H         1 <0>         0.1311
     22 H4          0.3859   -3.7349   -2.1122 H         1 <0>         0.0937
     23 H5          1.9728   -4.1484   -1.3832 H         1 <0>         0.0959
     24 H6         -0.7541   -5.4635   -0.8830 H         1 <0>         0.0811
     25 H7         -0.1519   -5.9432    1.3238 H         1 <0>         0.0780
     26 H8          1.8443   -3.8573    1.6048 H         1 <0>         0.0844
     27 H9         -0.0258   -4.2200    3.0470 H         1 <0>         0.3879
     28 H10         1.8389   -7.1208    0.6943 H         1 <0>         0.3842
     29 H11         0.6377   -7.3867   -1.1572 H         1 <0>         0.3812
     30 H12         3.3774    3.1975   -0.0138 H         1 <0>         0.4110
     31 H13         4.3085    1.7992   -0.0299 H         1 <0>         0.4190
@<TRIPOS>BOND
     1    1    6 ar
     2    1    2 ar
     3    1   19 1
     4    2    3 ar
     5    3    4 ar
     6    3   18 1
     7    4    9 1
     8    4    5 ar
     9    5    6 ar
    10    5    7 1
    11    7    8 1
    12    7   10 1
    13    8    9 2
    14    8   20 1
    15   10   14 1
    16   10   11 1
    17   10   21 1
    18   11   12 1
    19   11   22 1
    20   11   23 1
    21   12   13 1
    22   12   17 1
    23   12   24 1
    24   13   14 1
    25   13   16 1
    26   13   25 1
    27   14   15 1
    28   14   26 1
    29   15   27 1
    30   16   28 1
    31   17   29 1
    32   18   30 1
    33   18   31 1
@<TRIPOS>MOLECULE
CHEMBL8275__9
   31    33     0     0     0
SMALL
USER_CHARGES

@<TRIPOS>ATOM
      1 C1         -0.0158    1.3119    0.0093 C.ar      1 <0>         0.3600
      2 N1          1.0888    2.0360    0.0026 N.ar      1 <0>        -0.5937
      3 C2          2.2875    1.4625   -0.0119 C.ar      1 <0>         0.5061
      4 C3          2.3582    0.0588   -0.0202 C.ar      1 <0>        -0.1063
      5 C4          1.1547   -0.6659   -0.0126 C.ar      1 <0>         0.2943
      6 N2          0.0021   -0.0041    0.0020 N.ar      1 <0>        -0.5620
      7 N3          1.5110   -1.9908   -0.0227 N.pl3     1 <0>        -0.4541
      8 C5          2.8729   -2.0476   -0.0358 C.2       1 <0>         0.2926
      9 N4          3.3680   -0.8441   -0.0343 N.2       1 <0>        -0.4744
     10 C6          0.5956   -3.1347   -0.0195 C.3       1 <0>         0.1460
     11 C7          0.8987   -4.0748   -1.2125 C.3       1 <0>        -0.1218
     12 C8          0.3250   -5.4313   -0.7330 C.3       1 <0>         0.0725
     13 C9          0.6625   -5.4742    0.7717 C.3       1 <0>         0.0366
     14 C10         0.8346   -4.0139    1.2253 C.3       1 <0>         0.1027
     15 O1          2.1583   -3.8086    1.7228 O.3       1 <0>        -0.5396
     16 O2          1.8768   -6.1979    0.9805 O.3       1 <0>        -0.5387
     17 O3          0.9590   -6.5129   -1.4188 O.3       1 <0>        -0.5468
     18 N5          3.4393    2.2295   -0.0193 N.pl3     1 <0>        -0.8187
     19 H1         -0.9693    1.8187    0.0257 H         1 <0>         0.2036
     20 H2          3.4551   -2.9572   -0.0459 H         1 <0>         0.2210
     21 H3         -0.4392   -2.7940   -0.0530 H         1 <0>         0.1276
     22 H4          0.3859   -3.7349   -2.1122 H         1 <0>         0.0882
     23 H5          1.9728   -4.1484   -1.3832 H         1 <0>         0.0958
     24 H6         -0.7541   -5.4635   -0.8830 H         1 <0>         0.0779
     25 H7         -0.1519   -5.9432    1.3238 H         1 <0>         0.0715
     26 H8          0.1037   -3.7743    1.9976 H         1 <0>         0.0792
     27 H9          2.3700   -4.3343    2.5064 H         1 <0>         0.3900
     28 H10         1.8389   -7.1208    0.6943 H         1 <0>         0.3820
     29 H11         0.6377   -7.3867   -1.1572 H         1 <0>         0.3799
     30 H12         3.3774    3.1975   -0.0138 H         1 <0>         0.4099
     31 H13         4.3085    1.7992   -0.0299 H         1 <0>         0.4188
@<TRIPOS>BOND
     1    1    6 ar
     2    1    2 ar
     3    1   19 1
     4    2    3 ar
     5    3    4 ar
     6    3   18 1
     7    4    9 1
     8    4    5 ar
     9    5    6 ar
    10    5    7 1
    11    7    8 1
    12    7   10 1
    13    8    9 2
    14    8   20 1
    15   10   14 1
    16   10   11 1
    17   10   21 1
    18   11   12 1
    19   11   22 1
    20   11   23 1
    21   12   13 1
    22   12   17 1
    23   12   24 1
    24   13   14 1
    25   13   16 1
    26   13   25 1
    27   14   15 1
    28   14   26 1
    29   15   27 1
    30   16   28 1
    31   17   29 1
    32   18   30 1
    33   18   31 1
@<TRIPOS>MOLECULE
CHEMBL8275__10
   31    33     0     0     0
SMALL
USER_CHARGES

@<TRIPOS>ATOM
      1 C1         -0.0158    1.3119    0.0093 C.ar      1 <0>         0.3673
      2 N1          1.0888    2.0360    0.0026 N.ar      1 <0>        -0.5928
      3 C2          2.2875    1.4625   -0.0119 C.ar      1 <0>         0.5103
      4 C3          2.3582    0.0588   -0.0202 C.ar      1 <0>        -0.1138
      5 C4          1.1547   -0.6659   -0.0126 C.ar      1 <0>         0.3104
      6 N2          0.0021   -0.0041    0.0020 N.ar      1 <0>        -0.5574
      7 N3          1.5110   -1.9908   -0.0227 N.pl3     1 <0>        -0.4642
      8 C5          2.8729   -2.0476   -0.0358 C.2       1 <0>         0.2443
      9 N4          3.3680   -0.8441   -0.0343 N.2       1 <0>        -0.4559
     10 C6          0.5956   -3.1347   -0.0195 C.3       1 <0>         0.1451
     11 C7          0.8987   -4.0748   -1.2125 C.3       1 <0>        -0.1213
     12 C8          0.3250   -5.4313   -0.7330 C.3       1 <0>         0.0722
     13 C9          0.6625   -5.4742    0.7717 C.3       1 <0>         0.0369
     14 C10         0.8346   -4.0139    1.2253 C.3       1 <0>         0.1049
     15 O1         -0.1237   -3.6997    2.2378 O.3       1 <0>        -0.5395
     16 O2         -0.4052   -6.0891    1.4955 O.3       1 <0>        -0.5493
     17 O3          0.9590   -6.5129   -1.4188 O.3       1 <0>        -0.5558
     18 N5          3.4393    2.2295   -0.0193 N.pl3     1 <0>        -0.8171
     19 H1         -0.9693    1.8187    0.0257 H         1 <0>         0.2059
     20 H2          3.4551   -2.9572   -0.0459 H         1 <0>         0.2201
     21 H3         -0.4392   -2.7940   -0.0530 H         1 <0>         0.1319
     22 H4          0.3859   -3.7349   -2.1122 H         1 <0>         0.0956
     23 H5          1.9728   -4.1484   -1.3832 H         1 <0>         0.0946
     24 H6         -0.7541   -5.4635   -0.8830 H         1 <0>         0.0846
     25 H7          1.5888   -6.0262    0.9310 H         1 <0>         0.0814
     26 H8          1.8443   -3.8573    1.6048 H         1 <0>         0.0768
     27 H9         -0.0258   -4.2200    3.0470 H         1 <0>         0.3884
     28 H10        -0.5773   -7.0055    1.2395 H         1 <0>         0.3832
     29 H11         0.6377   -7.3867   -1.1572 H         1 <0>         0.3834
     30 H12         3.3774    3.1975   -0.0138 H         1 <0>         0.4111
     31 H13         4.3085    1.7992   -0.0299 H         1 <0>         0.4189
@<TRIPOS>BOND
     1    1    6 ar
     2    1    2 ar
     3    1   19 1
     4    2    3 ar
     5    3    4 ar
     6    3   18 1
     7    4    9 1
     8    4    5 ar
     9    5    6 ar
    10    5    7 1
    11    7    8 1
    12    7   10 1
    13    8    9 2
    14    8   20 1
    15   10   14 1
    16   10   11 1
    17   10   21 1
    18   11   12 1
    19   11   22 1
    20   11   23 1
    21   12   13 1
    22   12   17 1
    23   12   24 1
    24   13   14 1
    25   13   16 1
    26   13   25 1
    27   14   15 1
    28   14   26 1
    29   15   27 1
    30   16   28 1
    31   17   29 1
    32   18   30 1
    33   18   31 1
@<TRIPOS>MOLECULE
CHEMBL8275__11
   31    33     0     0     0
SMALL
USER_CHARGES

@<TRIPOS>ATOM
      1 C1         -0.0158    1.3119    0.0093 C.ar      1 <0>         0.3615
      2 N1          1.0888    2.0360    0.0026 N.ar      1 <0>        -0.5934
      3 C2          2.2875    1.4625   -0.0119 C.ar      1 <0>         0.5066
      4 C3          2.3582    0.0588   -0.0202 C.ar      1 <0>        -0.1071
      5 C4          1.1547   -0.6659   -0.0126 C.ar      1 <0>         0.2966
      6 N2          0.0021   -0.0041    0.0020 N.ar      1 <0>        -0.5616
      7 N3          1.5110   -1.9908   -0.0227 N.pl3     1 <0>        -0.4559
      8 C5          2.8729   -2.0476   -0.0358 C.2       1 <0>         0.2877
      9 N4          3.3680   -0.8441   -0.0343 N.2       1 <0>        -0.4721
     10 C6          0.5956   -3.1347   -0.0195 C.3       1 <0>         0.1518
     11 C7          0.8987   -4.0748   -1.2125 C.3       1 <0>        -0.1242
     12 C8          0.3250   -5.4313   -0.7330 C.3       1 <0>         0.0727
     13 C9          0.6625   -5.4742    0.7717 C.3       1 <0>         0.0367
     14 C10         0.8346   -4.0139    1.2253 C.3       1 <0>         0.1006
     15 O1          2.1583   -3.8086    1.7228 O.3       1 <0>        -0.5509
     16 O2         -0.4052   -6.0891    1.4955 O.3       1 <0>        -0.5590
     17 O3          0.9590   -6.5129   -1.4188 O.3       1 <0>        -0.5542
     18 N5          3.4393    2.2295   -0.0193 N.pl3     1 <0>        -0.8185
     19 H1         -0.9693    1.8187    0.0257 H         1 <0>         0.2041
     20 H2          3.4551   -2.9572   -0.0459 H         1 <0>         0.2198
     21 H3         -0.4392   -2.7940   -0.0530 H         1 <0>         0.1301
     22 H4          0.3859   -3.7349   -2.1122 H         1 <0>         0.0920
     23 H5          1.9728   -4.1484   -1.3832 H         1 <0>         0.0954
     24 H6         -0.7541   -5.4635   -0.8830 H         1 <0>         0.0831
     25 H7          1.5888   -6.0262    0.9310 H         1 <0>         0.0867
     26 H8          0.1037   -3.7743    1.9976 H         1 <0>         0.0859
     27 H9          2.3700   -4.3343    2.5064 H         1 <0>         0.3897
     28 H10        -0.5773   -7.0055    1.2395 H         1 <0>         0.3847
     29 H11         0.6377   -7.3867   -1.1572 H         1 <0>         0.3826
     30 H12         3.3774    3.1975   -0.0138 H         1 <0>         0.4101
     31 H13         4.3085    1.7992   -0.0299 H         1 <0>         0.4187
@<TRIPOS>BOND
     1    1    6 ar
     2    1    2 ar
     3    1   19 1
     4    2    3 ar
     5    3    4 ar
     6    3   18 1
     7    4    9 1
     8    4    5 ar
     9    5    6 ar
    10    5    7 1
    11    7    8 1
    12    7   10 1
    13    8    9 2
    14    8   20 1
    15   10   14 1
    16   10   11 1
    17   10   21 1
    18   11   12 1
    19   11   22 1
    20   11   23 1
    21   12   13 1
    22   12   17 1
    23   12   24 1
    24   13   14 1
    25   13   16 1
    26   13   25 1
    27   14   15 1
    28   14   26 1
    29   15   27 1
    30   16   28 1
    31   17   29 1
    32   18   30 1
    33   18   31 1
@<TRIPOS>MOLECULE
CHEMBL8275__12
   31    33     0     0     0
SMALL
USER_CHARGES

@<TRIPOS>ATOM
      1 C1         -0.0158    1.3119    0.0093 C.ar      1 <0>         0.3682
      2 N1          1.0888    2.0360    0.0026 N.ar      1 <0>        -0.5924
      3 C2          2.2875    1.4625   -0.0119 C.ar      1 <0>         0.5109
      4 C3          2.3582    0.0588   -0.0202 C.ar      1 <0>        -0.1133
      5 C4          1.1547   -0.6659   -0.0126 C.ar      1 <0>         0.3086
      6 N2          0.0021   -0.0041    0.0020 N.ar      1 <0>        -0.5583
      7 N3          1.5110   -1.9908   -0.0227 N.pl3     1 <0>        -0.4663
      8 C5          2.8729   -2.0476   -0.0358 C.2       1 <0>         0.2455
      9 N4          3.3680   -0.8441   -0.0343 N.2       1 <0>        -0.4551
     10 C6          0.5956   -3.1347   -0.0195 C.3       1 <0>         0.1469
     11 C7          0.8671   -4.0321   -1.2445 C.3       1 <0>        -0.1225
     12 C8          1.8138   -5.1335   -0.7062 C.3       1 <0>         0.0668
     13 C9          1.2558   -5.3996    0.7140 C.3       1 <0>         0.0338
     14 C10         0.8428   -4.0041    1.2258 C.3       1 <0>         0.1034
     15 O1         -0.3541   -4.1013    2.0004 O.3       1 <0>        -0.5506
     16 O2          2.2684   -5.9601    1.5522 O.3       1 <0>        -0.5584
     17 O3          1.7306   -6.3109   -1.5117 O.3       1 <0>        -0.5517
     18 N5          3.4393    2.2295   -0.0193 N.pl3     1 <0>        -0.8166
     19 H1         -0.9693    1.8187    0.0257 H         1 <0>         0.2065
     20 H2          3.4551   -2.9572   -0.0459 H         1 <0>         0.2171
     21 H3         -0.4371   -2.7861   -0.0326 H         1 <0>         0.1353
     22 H4         -0.0615   -4.4717   -1.6086 H         1 <0>         0.1075
     23 H5          1.3557   -3.4618   -2.0345 H         1 <0>         0.0929
     24 H6          2.8402   -4.7701   -0.6562 H         1 <0>         0.0786
     25 H7          0.3901   -6.0600    0.6662 H         1 <0>         0.0918
     26 H8          1.6438   -3.5750    1.8277 H         1 <0>         0.0822
     27 H9         -0.2627   -4.6374    2.7999 H         1 <0>         0.3911
     28 H10         2.6067   -6.8121    1.2444 H         1 <0>         0.3851
     29 H11         2.3046   -7.0309   -1.2164 H         1 <0>         0.3828
     30 H12         3.3774    3.1975   -0.0138 H         1 <0>         0.4114
     31 H13         4.3085    1.7992   -0.0299 H         1 <0>         0.4191
@<TRIPOS>BOND
     1    1    6 ar
     2    1    2 ar
     3    1   19 1
     4    2    3 ar
     5    3    4 ar
     6    3   18 1
     7    4    9 1
     8    4    5 ar
     9    5    6 ar
    10    5    7 1
    11    7    8 1
    12    7   10 1
    13    8    9 2
    14    8   20 1
    15   10   14 1
    16   10   11 1
    17   10   21 1
    18   11   12 1
    19   11   22 1
    20   11   23 1
    21   12   13 1
    22   12   17 1
    23   12   24 1
    24   13   14 1
    25   13   16 1
    26   13   25 1
    27   14   15 1
    28   14   26 1
    29   15   27 1
    30   16   28 1
    31   17   29 1
    32   18   30 1
    33   18   31 1
@<TRIPOS>MOLECULE
CHEMBL8275__13
   31    33     0     0     0
SMALL
USER_CHARGES

@<TRIPOS>ATOM
      1 C1         -0.0158    1.3119    0.0093 C.ar      1 <0>         0.3615
      2 N1          1.0888    2.0360    0.0026 N.ar      1 <0>        -0.5940
      3 C2          2.2875    1.4625   -0.0119 C.ar      1 <0>         0.5068
      4 C3          2.3582    0.0588   -0.0202 C.ar      1 <0>        -0.1072
      5 C4          1.1547   -0.6659   -0.0126 C.ar      1 <0>         0.3006
      6 N2          0.0021   -0.0041    0.0020 N.ar      1 <0>        -0.5617
      7 N3          1.5110   -1.9908   -0.0227 N.pl3     1 <0>        -0.4508
      8 C5          2.8729   -2.0476   -0.0358 C.2       1 <0>         0.2834
      9 N4          3.3680   -0.8441   -0.0343 N.2       1 <0>        -0.4702
     10 C6          0.5956   -3.1347   -0.0195 C.3       1 <0>         0.1473
     11 C7          0.8671   -4.0321   -1.2445 C.3       1 <0>        -0.1280
     12 C8          1.8138   -5.1335   -0.7062 C.3       1 <0>         0.0679
     13 C9          1.2558   -5.3996    0.7140 C.3       1 <0>         0.0354
     14 C10         0.8428   -4.0041    1.2258 C.3       1 <0>         0.1024
     15 O1          1.8929   -3.4415    2.0150 O.3       1 <0>        -0.5421
     16 O2          2.2684   -5.9601    1.5522 O.3       1 <0>        -0.5546
     17 O3          1.7306   -6.3109   -1.5117 O.3       1 <0>        -0.5548
     18 N5          3.4393    2.2295   -0.0193 N.pl3     1 <0>        -0.8188
     19 H1         -0.9693    1.8187    0.0257 H         1 <0>         0.2037
     20 H2          3.4551   -2.9572   -0.0459 H         1 <0>         0.2120
     21 H3         -0.4371   -2.7861   -0.0326 H         1 <0>         0.1277
     22 H4         -0.0615   -4.4717   -1.6086 H         1 <0>         0.1051
     23 H5          1.3557   -3.4618   -2.0345 H         1 <0>         0.0924
     24 H6          2.8402   -4.7701   -0.6562 H         1 <0>         0.0791
     25 H7          0.3901   -6.0600    0.6662 H         1 <0>         0.0852
     26 H8         -0.0702   -4.0782    1.8166 H         1 <0>         0.0831
     27 H9          2.0963   -3.9448    2.8153 H         1 <0>         0.3919
     28 H10         2.6067   -6.8121    1.2444 H         1 <0>         0.3857
     29 H11         2.3046   -7.0309   -1.2164 H         1 <0>         0.3823
     30 H12         3.3774    3.1975   -0.0138 H         1 <0>         0.4099
     31 H13         4.3085    1.7992   -0.0299 H         1 <0>         0.4186
@<TRIPOS>BOND
     1    1    6 ar
     2    1    2 ar
     3    1   19 1
     4    2    3 ar
     5    3    4 ar
     6    3   18 1
     7    4    9 1
     8    4    5 ar
     9    5    6 ar
    10    5    7 1
    11    7    8 1
    12    7   10 1
    13    8    9 2
    14    8   20 1
    15   10   14 1
    16   10   11 1
    17   10   21 1
    18   11   12 1
    19   11   22 1
    20   11   23 1
    21   12   13 1
    22   12   17 1
    23   12   24 1
    24   13   14 1
    25   13   16 1
    26   13   25 1
    27   14   15 1
    28   14   26 1
    29   15   27 1
    30   16   28 1
    31   17   29 1
    32   18   30 1
    33   18   31 1
@<TRIPOS>MOLECULE
CHEMBL8275__14
   31    33     0     0     0
SMALL
USER_CHARGES

@<TRIPOS>ATOM
      1 C1         -0.0158    1.3119    0.0093 C.ar      1 <0>         0.3685
      2 N1          1.0888    2.0360    0.0026 N.ar      1 <0>        -0.5926
      3 C2          2.2875    1.4625   -0.0119 C.ar      1 <0>         0.5108
      4 C3          2.3582    0.0588   -0.0202 C.ar      1 <0>        -0.1141
      5 C4          1.1547   -0.6659   -0.0126 C.ar      1 <0>         0.3093
      6 N2          0.0021   -0.0041    0.0020 N.ar      1 <0>        -0.5578
      7 N3          1.5110   -1.9908   -0.0227 N.pl3     1 <0>        -0.4665
      8 C5          2.8729   -2.0476   -0.0358 C.2       1 <0>         0.2408
      9 N4          3.3680   -0.8441   -0.0343 N.2       1 <0>        -0.4549
     10 C6          0.5956   -3.1347   -0.0195 C.3       1 <0>         0.1434
     11 C7          0.8671   -4.0321   -1.2445 C.3       1 <0>        -0.1167
     12 C8          1.8138   -5.1335   -0.7062 C.3       1 <0>         0.0655
     13 C9          1.2558   -5.3996    0.7140 C.3       1 <0>         0.0348
     14 C10         0.8428   -4.0041    1.2258 C.3       1 <0>         0.1062
     15 O1         -0.3541   -4.1013    2.0004 O.3       1 <0>        -0.5380
     16 O2          0.1208   -6.2654    0.6514 O.3       1 <0>        -0.5336
     17 O3          1.7306   -6.3109   -1.5117 O.3       1 <0>        -0.5483
     18 N5          3.4393    2.2295   -0.0193 N.pl3     1 <0>        -0.8168
     19 H1         -0.9693    1.8187    0.0257 H         1 <0>         0.2065
     20 H2          3.4551   -2.9572   -0.0459 H         1 <0>         0.2163
     21 H3         -0.4371   -2.7861   -0.0326 H         1 <0>         0.1332
     22 H4         -0.0615   -4.4717   -1.6086 H         1 <0>         0.1069
     23 H5          1.3557   -3.4618   -2.0345 H         1 <0>         0.0877
     24 H6          2.8402   -4.7701   -0.6562 H         1 <0>         0.0753
     25 H7          2.0282   -5.8271    1.3534 H         1 <0>         0.0730
     26 H8          1.6438   -3.5750    1.8277 H         1 <0>         0.0792
     27 H9         -0.2627   -4.6374    2.7999 H         1 <0>         0.3874
     28 H10         0.3119   -7.1383    0.2818 H         1 <0>         0.3823
     29 H11         2.3046   -7.0309   -1.2164 H         1 <0>         0.3822
     30 H12         3.3774    3.1975   -0.0138 H         1 <0>         0.4113
     31 H13         4.3085    1.7992   -0.0299 H         1 <0>         0.4189
@<TRIPOS>BOND
     1    1    6 ar
     2    1    2 ar
     3    1   19 1
     4    2    3 ar
     5    3    4 ar
     6    3   18 1
     7    4    9 1
     8    4    5 ar
     9    5    6 ar
    10    5    7 1
    11    7    8 1
    12    7   10 1
    13    8    9 2
    14    8   20 1
    15   10   14 1
    16   10   11 1
    17   10   21 1
    18   11   12 1
    19   11   22 1
    20   11   23 1
    21   12   13 1
    22   12   17 1
    23   12   24 1
    24   13   14 1
    25   13   16 1
    26   13   25 1
    27   14   15 1
    28   14   26 1
    29   15   27 1
    30   16   28 1
    31   17   29 1
    32   18   30 1
    33   18   31 1
@<TRIPOS>MOLECULE
CHEMBL8275__15
   31    33     0     0     0
SMALL
USER_CHARGES

@<TRIPOS>ATOM
      1 C1         -0.0158    1.3119    0.0093 C.ar      1 <0>         0.3611
      2 N1          1.0888    2.0360    0.0026 N.ar      1 <0>        -0.5936
      3 C2          2.2875    1.4625   -0.0119 C.ar      1 <0>         0.5061
      4 C3          2.3582    0.0588   -0.0202 C.ar      1 <0>        -0.1079
      5 C4          1.1547   -0.6659   -0.0126 C.ar      1 <0>         0.2973
      6 N2          0.0021   -0.0041    0.0020 N.ar      1 <0>        -0.5603
      7 N3          1.5110   -1.9908   -0.0227 N.pl3     1 <0>        -0.4567
      8 C5          2.8729   -2.0476   -0.0358 C.2       1 <0>         0.2843
      9 N4          3.3680   -0.8441   -0.0343 N.2       1 <0>        -0.4727
     10 C6          0.5956   -3.1347   -0.0195 C.3       1 <0>         0.1542
     11 C7          0.8987   -4.0748   -1.2125 C.3       1 <0>        -0.1252
     12 C8          0.3250   -5.4313   -0.7330 C.3       1 <0>         0.0719
     13 C9          0.6625   -5.4742    0.7717 C.3       1 <0>         0.0397
     14 C10         0.8346   -4.0139    1.2253 C.3       1 <0>         0.1001
     15 O1          2.1583   -3.8086    1.7228 O.3       1 <0>        -0.5534
     16 O2         -0.4052   -6.0891    1.4955 O.3       1 <0>        -0.5512
     17 O3         -1.0898   -5.4735   -0.9296 O.3       1 <0>        -0.5461
     18 N5          3.4393    2.2295   -0.0193 N.pl3     1 <0>        -0.8190
     19 H1         -0.9693    1.8187    0.0257 H         1 <0>         0.2040
     20 H2          3.4551   -2.9572   -0.0459 H         1 <0>         0.2191
     21 H3         -0.4392   -2.7940   -0.0530 H         1 <0>         0.1306
     22 H4          0.3859   -3.7349   -2.1122 H         1 <0>         0.0952
     23 H5          1.9728   -4.1484   -1.3832 H         1 <0>         0.0975
     24 H6          0.8086   -6.2563   -1.2561 H         1 <0>         0.0776
     25 H7          1.5888   -6.0262    0.9310 H         1 <0>         0.0823
     26 H8          0.1037   -3.7743    1.9976 H         1 <0>         0.0841
     27 H9          2.3700   -4.3343    2.5064 H         1 <0>         0.3887
     28 H10        -0.5773   -7.0055    1.2395 H         1 <0>         0.3820
     29 H11        -1.5017   -6.3013   -0.6464 H         1 <0>         0.3820
     30 H12         3.3774    3.1975   -0.0138 H         1 <0>         0.4099
     31 H13         4.3085    1.7992   -0.0299 H         1 <0>         0.4184
@<TRIPOS>BOND
     1    1    6 ar
     2    1    2 ar
     3    1   19 1
     4    2    3 ar
     5    3    4 ar
     6    3   18 1
     7    4    9 1
     8    4    5 ar
     9    5    6 ar
    10    5    7 1
    11    7    8 1
    12    7   10 1
    13    8    9 2
    14    8   20 1
    15   10   14 1
    16   10   11 1
    17   10   21 1
    18   11   12 1
    19   11   22 1
    20   11   23 1
    21   12   13 1
    22   12   17 1
    23   12   24 1
    24   13   14 1
    25   13   16 1
    26   13   25 1
    27   14   15 1
    28   14   26 1
    29   15   27 1
    30   16   28 1
    31   17   29 1
    32   18   30 1
    33   18   31 1
@<TRIPOS>MOLECULE
CHEMBL608915
   40    42     0     0     0
SMALL
USER_CHARGES

@<TRIPOS>ATOM
      1 C1         -0.0187    1.5258    0.0104 C.3       1 <0>        -0.1506
      2 C2          0.0021   -0.0041    0.0020 C.3       1 <0>         0.0789
      3 C3          0.7421   -0.5109    1.2415 C.3       1 <0>        -0.1735
      4 O1         -1.3386   -0.4987    0.0122 O.3       1 <0>        -0.3472
      5 C4         -1.5575   -1.6781   -0.5901 C.2       1 <0>         0.4432
      6 O2         -0.6413   -2.2709   -1.1087 O.2       1 <0>        -0.4758
      7 C5         -2.9461   -2.2629   -0.6194 C.3       1 <0>         0.0699
      8 H1         -3.6389   -1.5482   -1.0638 H         1 <0>         0.1422
      9 C6         -3.3991   -2.6088    0.8153 C.3       1 <0>         0.0598
     10 H2         -2.5394   -2.7438    1.4716 H         1 <0>         0.0952
     11 C7         -4.1529   -3.9508    0.6085 C.3       1 <0>         0.0772
     12 H3         -4.1124   -4.5666    1.5070 H         1 <0>         0.1057
     13 C8         -3.3226   -4.5807   -0.5381 C.3       1 <0>         0.3199
     14 O3         -2.9462   -3.4768   -1.3798 O.3       1 <0>        -0.3334
     15 N1         -4.1383   -5.5373   -1.2904 N.pl3     1 <0>        -0.4622
     16 C9         -4.8284   -5.2817   -2.4378 C.2       1 <0>         0.2851
     17 N2         -5.4434   -6.3574   -2.8358 N.2       1 <0>        -0.4658
     18 C10        -5.1877   -7.3688   -1.9716 C.ar      1 <0>        -0.1032
     19 C11        -4.3428   -6.8562   -0.9725 C.ar      1 <0>         0.3077
     20 N3         -3.9361   -7.6600    0.0044 N.ar      1 <0>        -0.5630
     21 C12        -4.3149   -8.9203    0.0379 C.ar      1 <0>         0.3648
     22 N4         -5.1048   -9.4475   -0.8796 N.ar      1 <0>        -0.5918
     23 C13        -5.5689   -8.7187   -1.8896 C.ar      1 <0>         0.5090
     24 N5         -6.3953   -9.2805   -2.8470 N.pl3     1 <0>        -0.8169
     25 O4         -5.5044   -3.7253    0.2030 O.3       1 <0>        -0.5333
     26 O5         -4.2748   -1.6028    1.3285 O.3       1 <0>        -0.5376
     27 H4          1.0039    1.9031    0.0027 H         1 <0>         0.0815
     28 H5         -0.5459    1.8868   -0.8726 H         1 <0>         0.0663
     29 H6         -0.5289    1.8773    0.9072 H         1 <0>         0.0698
     30 H7          0.5123   -0.3556   -0.8948 H         1 <0>         0.0861
     31 H8          0.2319   -0.1594    2.1383 H         1 <0>         0.0682
     32 H9          0.7568   -1.6008    1.2356 H         1 <0>         0.0605
     33 H10         1.7647   -0.1336    1.2338 H         1 <0>         0.0788
     34 H11        -2.4356   -5.0715   -0.1375 H         1 <0>         0.1324
     35 H12        -4.8605   -4.3272   -2.9421 H         1 <0>         0.2208
     36 H13        -3.9664   -9.5465    0.8458 H         1 <0>         0.2056
     37 H14        -6.7185   -8.7411   -3.5856 H         1 <0>         0.4194
     38 H15        -6.6514  -10.2136   -2.7794 H         1 <0>         0.4109
     39 H16        -6.0325   -3.2366    0.8491 H         1 <0>         0.3968
     40 H17        -3.8718   -0.7262    1.3932 H         1 <0>         0.3983
@<TRIPOS>BOND
     1    1    2 1
     2    1   27 1
     3    1   28 1
     4    1   29 1
     5    2    3 1
     6    2    4 1
     7    2   30 1
     8    3   31 1
     9    3   32 1
    10    3   33 1
    11    4    5 1
    12    5    6 2
    13    5    7 1
    14    7    8 1
    15    7   14 1
    16    7    9 1
    17    9   10 1
    18    9   11 1
    19    9   26 1
    20   11   12 1
    21   11   13 1
    22   11   25 1
    23   13   14 1
    24   13   15 1
    25   13   34 1
    26   15   19 1
    27   15   16 1
    28   16   17 2
    29   16   35 1
    30   17   18 1
    31   18   23 ar
    32   18   19 ar
    33   19   20 ar
    34   20   21 ar
    35   21   22 ar
    36   21   36 1
    37   22   23 ar
    38   23   24 1
    39   24   37 1
    40   24   38 1
    41   25   39 1
    42   26   40 1
@<TRIPOS>MOLECULE
CHEMBL608915__1
   40    42     0     0     0
SMALL
USER_CHARGES

@<TRIPOS>ATOM
      1 C1         -0.0187    1.5258    0.0104 C.3       1 <0>        -0.1508
      2 C2          0.0021   -0.0041    0.0020 C.3       1 <0>         0.0794
      3 C3          0.7421   -0.5109    1.2415 C.3       1 <0>        -0.1738
      4 O1         -1.3386   -0.4987    0.0122 O.3       1 <0>        -0.3445
      5 C4         -1.5575   -1.6781   -0.5901 C.2       1 <0>         0.4584
      6 O2         -0.6413   -2.2709   -1.1087 O.2       1 <0>        -0.4733
      7 C5         -2.9461   -2.2629   -0.6194 C.3       1 <0>         0.0625
      8 H1         -3.6395   -1.5488   -1.0637 H         1 <0>         0.1331
      9 C6         -3.3983   -2.6113    0.8119 C.3       1 <0>         0.0558
     10 H2         -2.5999   -2.4055    1.5250 H         1 <0>         0.0928
     11 C7         -3.6972   -4.1293    0.7565 C.3       1 <0>         0.0789
     12 H3         -2.8480   -4.7066    1.1222 H         1 <0>         0.0938
     13 C8         -3.9124   -4.3627   -0.7606 C.3       1 <0>         0.3197
     14 O3         -2.9468   -3.4827   -1.3799 O.3       1 <0>        -0.3338
     15 N1         -3.6389   -5.7584   -1.1118 N.pl3     1 <0>        -0.4726
     16 C9         -2.4589   -6.2563   -1.5787 C.2       1 <0>         0.2641
     17 N2         -2.5677   -7.5364   -1.7867 N.2       1 <0>        -0.4593
     18 C10        -3.8208   -7.9402   -1.4675 C.ar      1 <0>        -0.1102
     19 C11        -4.5216   -6.8052   -1.0254 C.ar      1 <0>         0.3173
     20 N3         -5.7877   -6.9360   -0.6435 N.ar      1 <0>        -0.5459
     21 C12        -6.3799   -8.1113   -0.6746 C.ar      1 <0>         0.3650
     22 N4         -5.7618   -9.2059   -1.0788 N.ar      1 <0>        -0.5912
     23 C13        -4.4975   -9.1714   -1.4878 C.ar      1 <0>         0.5088
     24 N5         -3.8578  -10.3241   -1.9086 N.pl3     1 <0>        -0.8174
     25 O4         -4.8800   -4.4434    1.4943 O.3       1 <0>        -0.5167
     26 O5         -4.5761   -1.8792    1.1566 O.3       1 <0>        -0.5301
     27 H4          1.0039    1.9031    0.0027 H         1 <0>         0.0823
     28 H5         -0.5459    1.8868   -0.8726 H         1 <0>         0.0666
     29 H6         -0.5289    1.8773    0.9072 H         1 <0>         0.0699
     30 H7          0.5123   -0.3556   -0.8948 H         1 <0>         0.0873
     31 H8          0.2319   -0.1594    2.1383 H         1 <0>         0.0681
     32 H9          0.7568   -1.6008    1.2356 H         1 <0>         0.0609
     33 H10         1.7647   -0.1336    1.2338 H         1 <0>         0.0795
     34 H11        -4.9251   -4.0838   -1.0520 H         1 <0>         0.1320
     35 H12        -1.5656   -5.6743   -1.7509 H         1 <0>         0.2252
     36 H13        -7.4098   -8.1830   -0.3574 H         1 <0>         0.2062
     37 H14        -2.9315  -10.2881   -2.1941 H         1 <0>         0.4190
     38 H15        -4.3357  -11.1682   -1.9180 H         1 <0>         0.4111
     39 H16        -4.8246   -4.2297    2.4358 H         1 <0>         0.3900
     40 H17        -4.4586   -0.9194    1.1498 H         1 <0>         0.3919
@<TRIPOS>BOND
     1    1    2 1
     2    1   27 1
     3    1   28 1
     4    1   29 1
     5    2    3 1
     6    2    4 1
     7    2   30 1
     8    3   31 1
     9    3   32 1
    10    3   33 1
    11    4    5 1
    12    5    6 2
    13    5    7 1
    14    7    8 1
    15    7   14 1
    16    7    9 1
    17    9   10 1
    18    9   11 1
    19    9   26 1
    20   11   12 1
    21   11   13 1
    22   11   25 1
    23   13   14 1
    24   13   15 1
    25   13   34 1
    26   15   19 1
    27   15   16 1
    28   16   17 2
    29   16   35 1
    30   17   18 1
    31   18   23 ar
    32   18   19 ar
    33   19   20 ar
    34   20   21 ar
    35   21   22 ar
    36   21   36 1
    37   22   23 ar
    38   23   24 1
    39   24   37 1
    40   24   38 1
    41   25   39 1
    42   26   40 1
@<TRIPOS>MOLECULE
CHEMBL301504
   34    36     0     0     0
SMALL
USER_CHARGES

@<TRIPOS>ATOM
      1 C1         -0.0158    1.3119    0.0093 C.ar      1 <0>         0.3662
      2 N1          1.0888    2.0360    0.0026 N.ar      1 <0>        -0.5922
      3 C2          2.2875    1.4625   -0.0119 C.ar      1 <0>         0.5097
      4 C3          2.3582    0.0588   -0.0202 C.ar      1 <0>        -0.1107
      5 C4          1.1547   -0.6659   -0.0126 C.ar      1 <0>         0.3059
      6 N2          0.0021   -0.0041    0.0020 N.ar      1 <0>        -0.5590
      7 N3          1.5110   -1.9908   -0.0227 N.pl3     1 <0>        -0.4651
      8 C5          2.8729   -2.0476   -0.0358 C.2       1 <0>         0.2598
      9 N4          3.3680   -0.8441   -0.0343 N.2       1 <0>        -0.4594
     10 C6          0.5956   -3.1347   -0.0195 C.3       1 <0>         0.1249
     11 C7          0.9205   -4.0829    1.1531 C.3       1 <0>         0.0586
     12 C8          0.7134   -5.5153    0.6305 C.3       1 <0>         0.0851
     13 C9          0.2699   -5.3875   -0.8415 C.3       1 <0>        -0.1061
     14 C10         0.8111   -4.0049   -1.2826 C.3       1 <0>         0.0892
     15 F1          2.1703   -4.0841   -1.6042 F         1 <0>        -0.1869
     16 C11         0.8921   -6.5006   -1.6868 C.3       1 <0>         0.0937
     17 O1          0.3572   -7.7622   -1.2815 O.3       1 <0>        -0.5681
     18 O2          1.9379   -6.2475    0.7110 O.3       1 <0>        -0.5446
     19 O3          0.0374   -3.8286    2.2474 O.3       1 <0>        -0.5505
     20 N5          3.4393    2.2295   -0.0193 N.pl3     1 <0>        -0.8169
     21 H1         -0.9693    1.8187    0.0257 H         1 <0>         0.2060
     22 H2          3.4551   -2.9572   -0.0459 H         1 <0>         0.2220
     23 H3         -0.4384   -2.7945    0.0376 H         1 <0>         0.1436
     24 H4          1.9550   -3.9463    1.4682 H         1 <0>         0.0819
     25 H5         -0.0607   -6.0164    1.2116 H         1 <0>         0.0844
     26 H6         -0.8173   -5.4131   -0.9159 H         1 <0>         0.1179
     27 H7          0.2363   -3.6152   -2.1228 H         1 <0>         0.1134
     28 H8          0.6626   -6.3297   -2.7385 H         1 <0>         0.0467
     29 H9          1.9731   -6.5023   -1.5465 H         1 <0>         0.0691
     30 H10         0.7080   -8.5154   -1.7762 H         1 <0>         0.3839
     31 H11         2.2802   -6.3438    1.6102 H         1 <0>         0.3798
     32 H12         0.1914   -4.3939    3.0167 H         1 <0>         0.3873
     33 H13         3.3774    3.1975   -0.0138 H         1 <0>         0.4111
     34 H14         4.3085    1.7992   -0.0299 H         1 <0>         0.4192
@<TRIPOS>BOND
     1    1    6 ar
     2    1    2 ar
     3    1   21 1
     4    2    3 ar
     5    3    4 ar
     6    3   20 1
     7    4    9 1
     8    4    5 ar
     9    5    6 ar
    10    5    7 1
    11    7    8 1
    12    7   10 1
    13    8    9 2
    14    8   22 1
    15   10   14 1
    16   10   11 1
    17   10   23 1
    18   11   12 1
    19   11   19 1
    20   11   24 1
    21   12   13 1
    22   12   18 1
    23   12   25 1
    24   13   14 1
    25   13   16 1
    26   13   26 1
    27   14   15 1
    28   14   27 1
    29   16   17 1
    30   16   28 1
    31   16   29 1
    32   17   30 1
    33   18   31 1
    34   19   32 1
    35   20   33 1
    36   20   34 1
@<TRIPOS>MOLECULE
CHEMBL280595
   26    27     0     0     0
SMALL
USER_CHARGES

@<TRIPOS>ATOM
      1 C1          1.8599   -1.5530    2.0402 C.2       1 <0>        -0.2414
      2 C2          0.9684   -1.4908    1.0438 C.2       1 <0>        -0.0381
      3 C3         -0.1898   -2.3909    1.0386 C.2       1 <0>         0.3876
      4 O1         -0.9978   -2.3345    0.1355 O.2       1 <0>        -0.4437
      5 O2          1.1364   -0.5932    0.0365 O.3       1 <0>        -0.1842
      6 C4          2.2798    0.1420    0.0207 C.2       1 <0>        -0.1407
      7 C5          2.2291    1.4532    0.2249 C.2       1 <0>         0.2550
      8 O3          1.0250    2.0773    0.3457 O.3       1 <0>        -0.6858
      9 N1          3.5113   -0.4835   -0.2109 N.pl3     1 <0>        -0.3378
     10 C6          3.7112   -1.8137   -0.4406 C.2       1 <0>         0.2202
     11 N2          4.9800   -2.0487   -0.6152 N.2       1 <0>        -0.4816
     12 C7          5.6730   -0.8897   -0.5093 C.ar      1 <0>        -0.1071
     13 C8          4.7395    0.1300   -0.2545 C.ar      1 <0>         0.2678
     14 N3          5.1700    1.3793   -0.1132 N.ar      1 <0>        -0.5400
     15 C9          6.4517    1.6625   -0.2128 C.ar      1 <0>         0.3360
     16 N4          7.3650    0.7396   -0.4541 N.ar      1 <0>        -0.6031
     17 C10         7.0303   -0.5382   -0.6018 C.ar      1 <0>         0.5013
     18 N5          7.9944   -1.4977   -0.8565 N.pl3     1 <0>        -0.8283
     19 H1          2.7532   -0.9471    2.0042 H         1 <0>         0.1092
     20 H2          1.6838   -2.2059    2.8823 H         1 <0>         0.1100
     21 H3         -0.3232   -3.1039    1.8388 H         1 <0>         0.1210
     22 H4          3.1429    2.0246    0.2952 H         1 <0>         0.1065
     23 H5          2.9323   -2.5611   -0.4729 H         1 <0>         0.2035
     24 H6          6.7682    2.6882   -0.0931 H         1 <0>         0.1960
     25 H7          7.7364   -2.4254   -0.9736 H         1 <0>         0.4143
     26 H8          8.9283   -1.2425   -0.9181 H         1 <0>         0.4034
@<TRIPOS>BOND
     1    1    2 2
     2    1   19 1
     3    1   20 1
     4    2    3 1
     5    2    5 1
     6    3    4 2
     7    3   21 1
     8    5    6 1
     9    6    7 2
    10    6    9 1
    11    7    8 1
    12    7   22 1
    13    9   13 1
    14    9   10 1
    15   10   11 2
    16   10   23 1
    17   11   12 1
    18   12   17 ar
    19   12   13 ar
    20   13   14 ar
    21   14   15 ar
    22   15   16 ar
    23   15   24 1
    24   16   17 ar
    25   17   18 1
    26   18   25 1
    27   18   26 1
@<TRIPOS>MOLECULE
CHEMBL610383
   43    45     0     0     0
SMALL
USER_CHARGES

@<TRIPOS>ATOM
      1 C1         -0.0187    1.5258    0.0104 C.3       1 <0>        -0.1490
      2 C2          0.0021   -0.0041    0.0020 C.3       1 <0>        -0.0948
      3 C3          0.7182   -0.4975   -1.2568 C.3       1 <0>        -0.1488
      4 C4          0.7421   -0.5109    1.2415 C.3       1 <0>         0.0687
      5 O1          0.0101   -0.1492    2.4144 O.3       1 <0>        -0.3494
      6 C5          0.5281   -0.5222    3.5952 C.2       1 <0>         0.4428
      7 O2          1.5685   -1.1355    3.6318 O.2       1 <0>        -0.4761
      8 C6         -0.1879   -0.1760    4.8752 C.3       1 <0>         0.0705
      9 H1         -1.2081   -0.5586    4.8431 H         1 <0>         0.1425
     10 C7         -0.2088    1.3558    5.0659 C.3       1 <0>         0.0596
     11 H2          0.5962    1.8278    4.5026 H         1 <0>         0.0954
     12 C8          0.0271    1.5009    6.5940 C.3       1 <0>         0.0772
     13 H3          0.5152    2.4470    6.8281 H         1 <0>         0.1058
     14 C9          0.9734    0.3034    6.8606 C.3       1 <0>         0.3199
     15 O3          0.5089   -0.7435    5.9906 O.3       1 <0>        -0.3333
     16 N1          0.8766   -0.1195    8.2599 N.pl3     1 <0>        -0.4623
     17 C10         0.0886   -1.1193    8.7477 C.2       1 <0>         0.2850
     18 N2          0.2506   -1.2253   10.0347 N.2       1 <0>        -0.4657
     19 C11         1.1501   -0.3030   10.4534 C.ar      1 <0>        -0.1031
     20 C12         1.5667    0.4140    9.3189 C.ar      1 <0>         0.3078
     21 N3          2.4631    1.3847    9.4614 N.ar      1 <0>        -0.5631
     22 C13         2.9584    1.6718   10.6469 C.ar      1 <0>         0.3648
     23 N4          2.6003    1.0241   11.7405 N.ar      1 <0>        -0.5918
     24 C14         1.7035    0.0439   11.6975 C.ar      1 <0>         0.5090
     25 N5          1.3353   -0.6298   12.8488 N.pl3     1 <0>        -0.8168
     26 O4         -1.1964    1.3630    7.3193 O.3       1 <0>        -0.5333
     27 O5         -1.4760    1.8980    4.6890 O.3       1 <0>        -0.5372
     28 H4          1.0039    1.9031    0.0027 H         1 <0>         0.0553
     29 H5         -0.5459    1.8868   -0.8726 H         1 <0>         0.0611
     30 H6         -0.5289    1.8773    0.9072 H         1 <0>         0.0602
     31 H7         -1.0205   -0.3814    0.0098 H         1 <0>         0.0842
     32 H8          1.7408   -0.1202   -1.2645 H         1 <0>         0.0596
     33 H9          0.7330   -1.5874   -1.2628 H         1 <0>         0.0597
     34 H10         0.1910   -0.1364   -2.1398 H         1 <0>         0.0682
     35 H11         0.8346   -1.5958    1.1912 H         1 <0>         0.0718
     36 H12         1.7350   -0.0630    1.2804 H         1 <0>         0.0714
     37 H13         2.0012    0.5715    6.6159 H         1 <0>         0.1325
     38 H14        -0.5728   -1.7326    8.1538 H         1 <0>         0.2208
     39 H15         3.6851    2.4665   10.7280 H         1 <0>         0.2056
     40 H16         0.6881   -1.3509   12.8029 H         1 <0>         0.4195
     41 H17         1.7244   -0.3810   13.7018 H         1 <0>         0.4109
     42 H18        -1.8600    2.0320    7.1021 H         1 <0>         0.3968
     43 H19        -1.7051    1.7540    3.7606 H         1 <0>         0.3979
@<TRIPOS>BOND
     1    1    2 1
     2    1   28 1
     3    1   29 1
     4    1   30 1
     5    2    3 1
     6    2    4 1
     7    2   31 1
     8    3   32 1
     9    3   33 1
    10    3   34 1
    11    4    5 1
    12    4   35 1
    13    4   36 1
    14    5    6 1
    15    6    7 2
    16    6    8 1
    17    8    9 1
    18    8   15 1
    19    8   10 1
    20   10   11 1
    21   10   12 1
    22   10   27 1
    23   12   13 1
    24   12   14 1
    25   12   26 1
    26   14   15 1
    27   14   16 1
    28   14   37 1
    29   16   20 1
    30   16   17 1
    31   17   18 2
    32   17   38 1
    33   18   19 1
    34   19   24 ar
    35   19   20 ar
    36   20   21 ar
    37   21   22 ar
    38   22   23 ar
    39   22   39 1
    40   23   24 ar
    41   24   25 1
    42   25   40 1
    43   25   41 1
    44   26   42 1
    45   27   43 1
@<TRIPOS>MOLECULE
CHEMBL610383__1
   43    45     0     0     0
SMALL
USER_CHARGES

@<TRIPOS>ATOM
      1 C1         -0.0187    1.5258    0.0104 C.3       1 <0>        -0.1494
      2 C2          0.0021   -0.0041    0.0020 C.3       1 <0>        -0.0948
      3 C3          0.7182   -0.4975   -1.2568 C.3       1 <0>        -0.1486
      4 C4          0.7421   -0.5109    1.2415 C.3       1 <0>         0.0690
      5 O1          0.0101   -0.1492    2.4144 O.3       1 <0>        -0.3466
      6 C5          0.5281   -0.5222    3.5952 C.2       1 <0>         0.4580
      7 O2          1.5685   -1.1355    3.6318 O.2       1 <0>        -0.4736
      8 C6         -0.1879   -0.1760    4.8752 C.3       1 <0>         0.0631
      9 H1         -1.2083   -0.5583    4.8439 H         1 <0>         0.1334
     10 C7         -0.2067    1.3527    5.0682 C.3       1 <0>         0.0557
     11 H2          0.3422    1.8453    4.2656 H         1 <0>         0.0929
     12 C8          0.5044    1.5726    6.4256 C.3       1 <0>         0.0789
     13 H3          1.5540    1.8270    6.2781 H         1 <0>         0.0939
     14 C9          0.3611    0.1826    7.0961 C.3       1 <0>         0.3198
     15 O3          0.5121   -0.7426    5.9955 O.3       1 <0>        -0.3338
     16 N1          1.4169   -0.0216    8.0910 N.pl3     1 <0>        -0.4728
     17 C10         2.6072   -0.6537    7.8858 C.2       1 <0>         0.2641
     18 N2          3.3052   -0.6547    8.9842 N.2       1 <0>        -0.4593
     19 C11         2.6094   -0.0250    9.9612 C.ar      1 <0>        -0.1101
     20 C12         1.3917    0.3936    9.3984 C.ar      1 <0>         0.3174
     21 N3          0.5204    1.0488   10.1583 N.ar      1 <0>        -0.5460
     22 C13         0.7917    1.3067   11.4204 C.ar      1 <0>         0.3650
     23 N4          1.9230    0.9367   11.9921 N.ar      1 <0>        -0.5912
     24 C14         2.8508    0.2690   11.3138 C.ar      1 <0>         0.5088
     25 N5          4.0339   -0.1136   11.9214 N.pl3     1 <0>        -0.8174
     26 O4         -0.1592    2.5800    7.1916 O.3       1 <0>        -0.5167
     27 O5         -1.5513    1.8336    5.1213 O.3       1 <0>        -0.5299
     28 H4          1.0039    1.9031    0.0027 H         1 <0>         0.0554
     29 H5         -0.5459    1.8868   -0.8726 H         1 <0>         0.0613
     30 H6         -0.5289    1.8773    0.9072 H         1 <0>         0.0603
     31 H7         -1.0205   -0.3814    0.0098 H         1 <0>         0.0843
     32 H8          1.7408   -0.1202   -1.2645 H         1 <0>         0.0598
     33 H9          0.7330   -1.5874   -1.2628 H         1 <0>         0.0600
     34 H10         0.1910   -0.1364   -2.1398 H         1 <0>         0.0684
     35 H11         0.8346   -1.5958    1.1912 H         1 <0>         0.0730
     36 H12         1.7350   -0.0630    1.2804 H         1 <0>         0.0723
     37 H13        -0.6232    0.0761    7.5522 H         1 <0>         0.1321
     38 H14         2.9239   -1.0898    6.9500 H         1 <0>         0.2253
     39 H15         0.0618    1.8412   12.0102 H         1 <0>         0.2061
     40 H16         4.7081   -0.5906   11.4128 H         1 <0>         0.4191
     41 H17         4.1889    0.0952   12.8559 H         1 <0>         0.4111
     42 H18        -0.1741    3.4496    6.7689 H         1 <0>         0.3901
     43 H19        -2.0600    1.6693    4.3154 H         1 <0>         0.3917
@<TRIPOS>BOND
     1    1    2 1
     2    1   28 1
     3    1   29 1
     4    1   30 1
     5    2    3 1
     6    2    4 1
     7    2   31 1
     8    3   32 1
     9    3   33 1
    10    3   34 1
    11    4    5 1
    12    4   35 1
    13    4   36 1
    14    5    6 1
    15    6    7 2
    16    6    8 1
    17    8    9 1
    18    8   15 1
    19    8   10 1
    20   10   11 1
    21   10   12 1
    22   10   27 1
    23   12   13 1
    24   12   14 1
    25   12   26 1
    26   14   15 1
    27   14   16 1
    28   14   37 1
    29   16   20 1
    30   16   17 1
    31   17   18 2
    32   17   38 1
    33   18   19 1
    34   19   24 ar
    35   19   20 ar
    36   20   21 ar
    37   21   22 ar
    38   22   23 ar
    39   22   39 1
    40   23   24 ar
    41   24   25 1
    42   25   40 1
    43   25   41 1
    44   26   42 1
    45   27   43 1
@<TRIPOS>MOLECULE
CHEMBL77518
   30    32     0     0     0
SMALL
USER_CHARGES

@<TRIPOS>ATOM
      1 C1         -0.0158    1.3119    0.0093 C.ar      1 <0>         0.3649
      2 N1          1.0888    2.0360    0.0026 N.ar      1 <0>        -0.5917
      3 C2          2.2875    1.4625   -0.0119 C.ar      1 <0>         0.5086
      4 C3          2.3582    0.0588   -0.0202 C.ar      1 <0>        -0.1112
      5 C4          1.1547   -0.6659   -0.0126 C.ar      1 <0>         0.3169
      6 N2          0.0021   -0.0041    0.0020 N.ar      1 <0>        -0.5468
      7 N3          1.5110   -1.9908   -0.0227 N.pl3     1 <0>        -0.4741
      8 C5          2.8729   -2.0476   -0.0358 C.2       1 <0>         0.2591
      9 N4          3.3680   -0.8441   -0.0343 N.2       1 <0>        -0.4602
     10 C6          0.5956   -3.1347   -0.0195 C.3       1 <0>         0.3203
     11 H1         -0.2828   -2.9138    0.5869 H         1 <0>         0.1271
     12 C7          0.1740   -3.4901   -1.4675 C.3       1 <0>         0.0783
     13 H2          1.0049   -3.3620   -2.1613 H         1 <0>         0.0967
     14 C8         -0.1950   -4.9902   -1.3073 C.3       1 <0>         0.0519
     15 H3         -0.0494   -5.5277   -2.2442 H         1 <0>         0.1028
     16 C9          0.8144   -5.4637   -0.2395 C.3       1 <0>        -0.0182
     17 H4          1.6612   -5.9520   -0.7219 H         1 <0>         0.1325
     18 O1          1.2628   -4.3057    0.4773 O.3       1 <0>        -0.3429
     19 C10         0.1431   -6.4236    0.7086 C.2       1 <0>         0.3271
     20 O2          0.0833   -6.1659    1.8869 O.2       1 <0>        -0.4173
     21 O3         -1.5386   -5.1365   -0.8431 O.3       1 <0>        -0.5339
     22 O4         -0.9585   -2.7212   -1.8777 O.3       1 <0>        -0.5183
     23 N5          3.4393    2.2295   -0.0193 N.pl3     1 <0>        -0.8177
     24 H5         -0.9693    1.8187    0.0257 H         1 <0>         0.2058
     25 H6          3.4551   -2.9572   -0.0459 H         1 <0>         0.2225
     26 H7         -0.2844   -7.3420    0.3343 H         1 <0>         0.1161
     27 H8         -1.8167   -6.0554   -0.7271 H         1 <0>         0.3839
     28 H9         -1.2574   -2.9105   -2.7776 H         1 <0>         0.3881
     29 H10         3.3774    3.1975   -0.0138 H         1 <0>         0.4109
     30 H11         4.3085    1.7992   -0.0299 H         1 <0>         0.4188
@<TRIPOS>BOND
     1    1    6 ar
     2    1    2 ar
     3    1   24 1
     4    2    3 ar
     5    3    4 ar
     6    3   23 1
     7    4    9 1
     8    4    5 ar
     9    5    6 ar
    10    5    7 1
    11    7    8 1
    12    7   10 1
    13    8    9 2
    14    8   25 1
    15   10   11 1
    16   10   18 1
    17   10   12 1
    18   12   13 1
    19   12   14 1
    20   12   22 1
    21   14   15 1
    22   14   16 1
    23   14   21 1
    24   16   17 1
    25   16   18 1
    26   16   19 1
    27   19   20 2
    28   19   26 1
    29   21   27 1
    30   22   28 1
    31   23   29 1
    32   23   30 1
@<TRIPOS>MOLECULE
CHEMBL50728
   34    36     0     0     0
SMALL
USER_CHARGES

@<TRIPOS>ATOM
      1 C1         -0.0157    1.3058    0.0092 C.2       1 <0>        -0.1705
      2 C2          0.0021   -0.0041    0.0020 C.2       1 <0>        -0.1587
      3 C3         -1.2926   -0.7753    0.0102 C.3       1 <0>        -0.0524
      4 H1         -2.1420   -0.0926    0.0345 H         1 <0>         0.0995
      5 C4         -1.3785   -1.7037   -1.2266 C.3       1 <0>        -0.1202
      6 C5         -2.3769   -2.7947   -0.7664 C.3       1 <0>         0.1450
      7 H2         -3.4026   -2.4398   -0.8662 H         1 <0>         0.1285
      8 C6         -2.0275   -3.0252    0.7184 C.3       1 <0>         0.0591
      9 H3         -1.3500   -3.8736    0.8153 H         1 <0>         0.0721
     10 C7         -1.3396   -1.7386    1.2142 C.3       1 <0>         0.0804
     11 H4         -0.3280   -1.9631    1.5524 H         1 <0>         0.0742
     12 O1         -2.0941   -1.1555    2.2785 O.3       1 <0>        -0.5437
     13 O2         -3.2191   -3.2624    1.4706 O.3       1 <0>        -0.5419
     14 N1         -2.1838   -4.0248   -1.5382 N.pl3     1 <0>        -0.4633
     15 C8         -1.0353   -4.7547   -1.6187 C.2       1 <0>         0.2433
     16 N2         -1.2172   -5.7863   -2.3910 N.2       1 <0>        -0.4573
     17 C9         -2.4904   -5.7841   -2.8539 C.ar      1 <0>        -0.1143
     18 C10        -3.1275   -4.6568   -2.3079 C.ar      1 <0>         0.3097
     19 N3         -4.4017   -4.4269   -2.6071 N.ar      1 <0>        -0.5580
     20 C11        -5.0622   -5.2431   -3.4013 C.ar      1 <0>         0.3667
     21 N4         -4.5075   -6.3159   -3.9351 N.ar      1 <0>        -0.5930
     22 C12        -3.2356   -6.6223   -3.7002 C.ar      1 <0>         0.5097
     23 N5         -2.6633   -7.7495   -4.2633 N.pl3     1 <0>        -0.8175
     24 H5          0.9122    1.8585    0.0033 H         1 <0>         0.1019
     25 H6         -0.9582    1.8330    0.0166 H         1 <0>         0.0993
     26 H7          0.9446   -0.5313   -0.0098 H         1 <0>         0.1126
     27 H8         -1.7678   -1.1629   -2.0892 H         1 <0>         0.0924
     28 H9         -0.4051   -2.1403   -1.4502 H         1 <0>         0.0864
     29 H10        -2.1603   -1.7136    3.0654 H         1 <0>         0.3764
     30 H11        -3.0655   -3.4147    2.4131 H         1 <0>         0.3794
     31 H12        -0.1106   -4.5124   -1.1160 H         1 <0>         0.2187
     32 H13        -6.0967   -5.0273   -3.6243 H         1 <0>         0.2056
     33 H14        -1.7373   -7.9687   -4.0753 H         1 <0>         0.4187
     34 H15        -3.1882   -8.3204   -4.8460 H         1 <0>         0.4110
@<TRIPOS>BOND
     1    1    2 2
     2    1   24 1
     3    1   25 1
     4    2    3 1
     5    2   26 1
     6    3    4 1
     7    3   10 1
     8    3    5 1
     9    5    6 1
    10    5   27 1
    11    5   28 1
    12    6    7 1
    13    6    8 1
    14    6   14 1
    15    8    9 1
    16    8   10 1
    17    8   13 1
    18   10   11 1
    19   10   12 1
    20   12   29 1
    21   13   30 1
    22   14   18 1
    23   14   15 1
    24   15   16 2
    25   15   31 1
    26   16   17 1
    27   17   22 ar
    28   17   18 ar
    29   18   19 ar
    30   19   20 ar
    31   20   21 ar
    32   20   32 1
    33   21   22 ar
    34   22   23 1
    35   23   33 1
    36   23   34 1
@<TRIPOS>MOLECULE
CHEMBL18802
   34    36     0     0     0
SMALL
USER_CHARGES

@<TRIPOS>ATOM
      1 C1          0.0257    1.2803    0.5556 C.ar      1 <0>         0.3624
      2 N1          1.1252    2.0082    0.4801 N.ar      1 <0>        -0.5945
      3 C2          2.3073    1.4473    0.2484 C.ar      1 <0>         0.5080
      4 C3          2.3661    0.0528    0.0837 C.ar      1 <0>        -0.1097
      5 C4          1.1688   -0.6767    0.1730 C.ar      1 <0>         0.3047
      6 N2          0.0329   -0.0276    0.4080 N.ar      1 <0>        -0.5613
      7 N3          1.5110   -1.9908   -0.0227 N.pl3     1 <0>        -0.4475
      8 C5          2.8589   -2.0370   -0.2202 C.2       1 <0>         0.2656
      9 N4          3.3587   -0.8370   -0.1574 N.2       1 <0>        -0.4657
     10 C6          0.5956   -3.1347   -0.0195 C.3       1 <0>         0.1486
     11 C7          0.9773   -4.1313    1.1031 C.3       1 <0>        -0.1271
     12 C8          2.1446   -4.9286    0.4700 C.3       1 <0>        -0.0905
     13 C9          1.7331   -5.0925   -1.0077 C.3       1 <0>         0.0773
     14 C10         0.7483   -3.9519   -1.3190 C.3       1 <0>         0.0568
     15 O1          1.2713   -3.1238   -2.3595 O.3       1 <0>        -0.5502
     16 O2          1.0951   -6.3565   -1.2009 O.3       1 <0>        -0.5496
     17 C11         2.2853   -6.2961    1.1415 C.3       1 <0>         0.0918
     18 O3          3.4369   -6.9650    0.6234 O.3       1 <0>        -0.5712
     19 N5          3.4538    2.2184    0.1705 N.pl3     1 <0>        -0.8186
     20 H1         -0.9137    1.7763    0.7500 H         1 <0>         0.2037
     21 H2          3.4282   -2.9367   -0.4019 H         1 <0>         0.2131
     22 H3         -0.4340   -2.7978    0.1005 H         1 <0>         0.1225
     23 H4          1.3111   -3.5999    1.9943 H         1 <0>         0.0889
     24 H5          0.1407   -4.7902    1.3355 H         1 <0>         0.1019
     25 H6          3.0758   -4.3672    0.5467 H         1 <0>         0.0958
     26 H7          2.6100   -5.0144   -1.6504 H         1 <0>         0.0753
     27 H8         -0.2164   -4.3625   -1.6173 H         1 <0>         0.0878
     28 H9          1.3904   -3.5807   -3.2034 H         1 <0>         0.3843
     29 H10         0.8125   -6.5194   -2.1112 H         1 <0>         0.3790
     30 H11         2.3961   -6.1627    2.2177 H         1 <0>         0.0445
     31 H12         1.3963   -6.8935    0.9391 H         1 <0>         0.0634
     32 H13         3.5883   -7.8404    1.0053 H         1 <0>         0.3818
     33 H14         3.4002    3.1801    0.2856 H         1 <0>         0.4101
     34 H15         4.3110    1.7973    0.0009 H         1 <0>         0.4186
@<TRIPOS>BOND
     1    1    6 ar
     2    1    2 ar
     3    1   20 1
     4    2    3 ar
     5    3    4 ar
     6    3   19 1
     7    4    9 1
     8    4    5 ar
     9    5    6 ar
    10    5    7 1
    11    7    8 1
    12    7   10 1
    13    8    9 2
    14    8   21 1
    15   10   14 1
    16   10   11 1
    17   10   22 1
    18   11   12 1
    19   11   23 1
    20   11   24 1
    21   12   13 1
    22   12   17 1
    23   12   25 1
    24   13   14 1
    25   13   16 1
    26   13   26 1
    27   14   15 1
    28   14   27 1
    29   15   28 1
    30   16   29 1
    31   17   18 1
    32   17   30 1
    33   17   31 1
    34   18   32 1
    35   19   33 1
    36   19   34 1
@<TRIPOS>MOLECULE
CHEMBL18802__1
   34    36     0     0     0
SMALL
USER_CHARGES

@<TRIPOS>ATOM
      1 C1         -0.0158    1.3119    0.0093 C.ar      1 <0>         0.3661
      2 N1          1.0888    2.0360    0.0026 N.ar      1 <0>        -0.5935
      3 C2          2.2875    1.4625   -0.0119 C.ar      1 <0>         0.5097
      4 C3          2.3582    0.0588   -0.0202 C.ar      1 <0>        -0.1144
      5 C4          1.1547   -0.6659   -0.0126 C.ar      1 <0>         0.3087
      6 N2          0.0021   -0.0041    0.0020 N.ar      1 <0>        -0.5576
      7 N3          1.5110   -1.9908   -0.0227 N.pl3     1 <0>        -0.4652
      8 C5          2.8729   -2.0476   -0.0358 C.2       1 <0>         0.2433
      9 N4          3.3680   -0.8441   -0.0343 N.2       1 <0>        -0.4579
     10 C6          0.5956   -3.1347   -0.0195 C.3       1 <0>         0.1501
     11 C7          0.8660   -4.0227    1.2077 C.3       1 <0>        -0.1227
     12 C8          1.2691   -5.4103    0.6673 C.3       1 <0>        -0.0833
     13 C9          0.6462   -5.4616   -0.7498 C.3       1 <0>         0.0826
     14 C10         0.8438   -4.0136   -1.2628 C.3       1 <0>         0.0590
     15 O1         -0.1063   -3.7116   -2.2865 O.3       1 <0>        -0.5487
     16 O2         -0.7430   -5.7893   -0.6809 O.3       1 <0>        -0.5436
     17 C11         0.6874   -6.5177    1.5484 C.3       1 <0>         0.0872
     18 O3          1.1680   -7.7860    1.0986 O.3       1 <0>        -0.5741
     19 N5          3.4393    2.2295   -0.0193 N.pl3     1 <0>        -0.8176
     20 H1         -0.9693    1.8187    0.0257 H         1 <0>         0.2053
     21 H2          3.4551   -2.9572   -0.0459 H         1 <0>         0.2185
     22 H3         -0.4371   -2.7861   -0.0088 H         1 <0>         0.1263
     23 H4          1.6782   -3.6026    1.8009 H         1 <0>         0.0849
     24 H5         -0.0357   -4.1058    1.8144 H         1 <0>         0.0930
     25 H6          2.3541   -5.4971    0.6105 H         1 <0>         0.0996
     26 H7          1.1807   -6.1714   -1.3812 H         1 <0>         0.0773
     27 H8          1.8602   -3.8748   -1.6313 H         1 <0>         0.0779
     28 H9          0.0034   -4.2355   -3.0919 H         1 <0>         0.3834
     29 H10        -1.1798   -5.8340   -1.5424 H         1 <0>         0.3827
     30 H11         0.9944   -6.3585    2.5821 H         1 <0>         0.0464
     31 H12        -0.4006   -6.4983    1.4854 H         1 <0>         0.0638
     32 H13         0.8390   -8.5361    1.6127 H         1 <0>         0.3832
     33 H14         3.3774    3.1975   -0.0138 H         1 <0>         0.4108
     34 H15         4.3085    1.7992   -0.0299 H         1 <0>         0.4187
@<TRIPOS>BOND
     1    1    6 ar
     2    1    2 ar
     3    1   20 1
     4    2    3 ar
     5    3    4 ar
     6    3   19 1
     7    4    9 1
     8    4    5 ar
     9    5    6 ar
    10    5    7 1
    11    7    8 1
    12    7   10 1
    13    8    9 2
    14    8   21 1
    15   10   14 1
    16   10   11 1
    17   10   22 1
    18   11   12 1
    19   11   23 1
    20   11   24 1
    21   12   13 1
    22   12   17 1
    23   12   25 1
    24   13   14 1
    25   13   16 1
    26   13   26 1
    27   14   15 1
    28   14   27 1
    29   15   28 1
    30   16   29 1
    31   17   18 1
    32   17   30 1
    33   17   31 1
    34   18   32 1
    35   19   33 1
    36   19   34 1
@<TRIPOS>MOLECULE
CHEMBL18802__2
   34    36     0     0     0
SMALL
USER_CHARGES

@<TRIPOS>ATOM
      1 C1          0.0253    1.2806    0.5525 C.ar      1 <0>         0.3600
      2 N1          1.1248    2.0085    0.4774 N.ar      1 <0>        -0.5947
      3 C2          2.3071    1.4475    0.2469 C.ar      1 <0>         0.5066
      4 C3          2.3660    0.0528    0.0831 C.ar      1 <0>        -0.1085
      5 C4          1.1686   -0.6766    0.1720 C.ar      1 <0>         0.3013
      6 N2          0.0326   -0.0273    0.4058 N.ar      1 <0>        -0.5612
      7 N3          1.5110   -1.9908   -0.0227 N.pl3     1 <0>        -0.4477
      8 C5          2.8591   -2.0371   -0.2191 C.2       1 <0>         0.2746
      9 N4          3.3588   -0.8371   -0.1567 N.2       1 <0>        -0.4702
     10 C6          0.5956   -3.1347   -0.0195 C.3       1 <0>         0.1482
     11 C7          0.9773   -4.1313    1.1031 C.3       1 <0>        -0.1284
     12 C8          2.1446   -4.9286    0.4700 C.3       1 <0>        -0.0935
     13 C9          1.7331   -5.0925   -1.0077 C.3       1 <0>         0.0774
     14 C10         0.7483   -3.9519   -1.3190 C.3       1 <0>         0.0539
     15 O1          1.2713   -3.1238   -2.3595 O.3       1 <0>        -0.5390
     16 O2          2.8828   -4.9901   -1.8502 O.3       1 <0>        -0.5390
     17 C11         2.2853   -6.2961    1.1415 C.3       1 <0>         0.0841
     18 O3          3.4369   -6.9650    0.6234 O.3       1 <0>        -0.5643
     19 N5          3.4537    2.2185    0.1695 N.pl3     1 <0>        -0.8192
     20 H1         -0.9143    1.7767    0.7460 H         1 <0>         0.2030
     21 H2          3.4284   -2.9369   -0.4000 H         1 <0>         0.2201
     22 H3         -0.4340   -2.7978    0.1005 H         1 <0>         0.1221
     23 H4          1.3111   -3.5999    1.9943 H         1 <0>         0.0925
     24 H5          0.1407   -4.7902    1.3355 H         1 <0>         0.1013
     25 H6          3.0758   -4.3672    0.5467 H         1 <0>         0.1006
     26 H7          1.2464   -6.0567   -1.1550 H         1 <0>         0.0716
     27 H8         -0.2164   -4.3625   -1.6173 H         1 <0>         0.0833
     28 H9          1.3904   -3.5807   -3.2034 H         1 <0>         0.3796
     29 H10         2.6893   -5.0849   -2.7929 H         1 <0>         0.3750
     30 H11         2.3961   -6.1627    2.2177 H         1 <0>         0.0525
     31 H12         1.3963   -6.8935    0.9391 H         1 <0>         0.0489
     32 H13         3.5883   -7.8404    1.0053 H         1 <0>         0.3811
     33 H14         3.4000    3.1803    0.2840 H         1 <0>         0.4096
     34 H15         4.3110    1.7973    0.0007 H         1 <0>         0.4186
@<TRIPOS>BOND
     1    1    6 ar
     2    1    2 ar
     3    1   20 1
     4    2    3 ar
     5    3    4 ar
     6    3   19 1
     7    4    9 1
     8    4    5 ar
     9    5    6 ar
    10    5    7 1
    11    7    8 1
    12    7   10 1
    13    8    9 2
    14    8   21 1
    15   10   14 1
    16   10   11 1
    17   10   22 1
    18   11   12 1
    19   11   23 1
    20   11   24 1
    21   12   13 1
    22   12   17 1
    23   12   25 1
    24   13   14 1
    25   13   16 1
    26   13   26 1
    27   14   15 1
    28   14   27 1
    29   15   28 1
    30   16   29 1
    31   17   18 1
    32   17   30 1
    33   17   31 1
    34   18   32 1
    35   19   33 1
    36   19   34 1
@<TRIPOS>MOLECULE
CHEMBL18802__3
   34    36     0     0     0
SMALL
USER_CHARGES

@<TRIPOS>ATOM
      1 C1          0.0268    1.2794    0.5633 C.ar      1 <0>         0.3656
      2 N1          1.1262    2.0075    0.4868 N.ar      1 <0>        -0.5929
      3 C2          2.3079    1.4469    0.2520 C.ar      1 <0>         0.5099
      4 C3          2.3663    0.0526    0.0852 C.ar      1 <0>        -0.1121
      5 C4          1.1692   -0.6770    0.1756 C.ar      1 <0>         0.3036
      6 N2          0.0337   -0.0282    0.4137 N.ar      1 <0>        -0.5594
      7 N3          1.5110   -1.9908   -0.0227 N.pl3     1 <0>        -0.4624
      8 C5          2.8586   -2.0367   -0.2228 C.2       1 <0>         0.2506
      9 N4          3.3585   -0.8368   -0.1591 N.2       1 <0>        -0.4594
     10 C6          0.5956   -3.1347   -0.0195 C.3       1 <0>         0.1457
     11 C7          0.9773   -4.1313    1.1031 C.3       1 <0>        -0.1224
     12 C8          2.1446   -4.9286    0.4700 C.3       1 <0>        -0.0930
     13 C9          1.7331   -5.0925   -1.0077 C.3       1 <0>         0.0785
     14 C10         0.7483   -3.9519   -1.3190 C.3       1 <0>         0.0586
     15 O1         -0.5164   -4.4902   -1.7101 O.3       1 <0>        -0.5515
     16 O2          2.8828   -4.9901   -1.8502 O.3       1 <0>        -0.5496
     17 C11         2.2853   -6.2961    1.1415 C.3       1 <0>         0.0845
     18 O3          3.4369   -6.9650    0.6234 O.3       1 <0>        -0.5649
     19 N5          3.4542    2.2181    0.1732 N.pl3     1 <0>        -0.8170
     20 H1         -0.9122    1.7751    0.7602 H         1 <0>         0.2056
     21 H2          3.4274   -2.9361   -0.4070 H         1 <0>         0.2252
     22 H3         -0.4340   -2.7978    0.1005 H         1 <0>         0.1293
     23 H4          1.3111   -3.5999    1.9943 H         1 <0>         0.0891
     24 H5          0.1407   -4.7902    1.3355 H         1 <0>         0.1028
     25 H6          3.0758   -4.3672    0.5467 H         1 <0>         0.0998
     26 H7          1.2464   -6.0567   -1.1550 H         1 <0>         0.0776
     27 H8          1.1472   -3.3203   -2.1126 H         1 <0>         0.0761
     28 H9         -0.4864   -5.0152   -2.5216 H         1 <0>         0.3877
     29 H10         2.6893   -5.0849   -2.7929 H         1 <0>         0.3799
     30 H11         2.3961   -6.1627    2.2177 H         1 <0>         0.0530
     31 H12         1.3963   -6.8935    0.9391 H         1 <0>         0.0500
     32 H13         3.5883   -7.8404    1.0053 H         1 <0>         0.3812
     33 H14         3.4009    3.1796    0.2899 H         1 <0>         0.4110
     34 H15         4.3110    1.7972    0.0014 H         1 <0>         0.4192
@<TRIPOS>BOND
     1    1    6 ar
     2    1    2 ar
     3    1   20 1
     4    2    3 ar
     5    3    4 ar
     6    3   19 1
     7    4    9 1
     8    4    5 ar
     9    5    6 ar
    10    5    7 1
    11    7    8 1
    12    7   10 1
    13    8    9 2
    14    8   21 1
    15   10   14 1
    16   10   11 1
    17   10   22 1
    18   11   12 1
    19   11   23 1
    20   11   24 1
    21   12   13 1
    22   12   17 1
    23   12   25 1
    24   13   14 1
    25   13   16 1
    26   13   26 1
    27   14   15 1
    28   14   27 1
    29   15   28 1
    30   16   29 1
    31   17   18 1
    32   17   30 1
    33   17   31 1
    34   18   32 1
    35   19   33 1
    36   19   34 1
@<TRIPOS>MOLECULE
CHEMBL18802__4
   34    36     0     0     0
SMALL
USER_CHARGES

@<TRIPOS>ATOM
      1 C1         -0.0158    1.3119    0.0093 C.ar      1 <0>         0.3611
      2 N1          1.0888    2.0360    0.0026 N.ar      1 <0>        -0.5936
      3 C2          2.2875    1.4625   -0.0119 C.ar      1 <0>         0.5061
      4 C3          2.3582    0.0588   -0.0202 C.ar      1 <0>        -0.1077
      5 C4          1.1547   -0.6659   -0.0126 C.ar      1 <0>         0.2957
      6 N2          0.0021   -0.0041    0.0020 N.ar      1 <0>        -0.5614
      7 N3          1.5110   -1.9908   -0.0227 N.pl3     1 <0>        -0.4559
      8 C5          2.8729   -2.0476   -0.0358 C.2       1 <0>         0.2866
      9 N4          3.3680   -0.8441   -0.0343 N.2       1 <0>        -0.4737
     10 C6          0.5956   -3.1347   -0.0195 C.3       1 <0>         0.1508
     11 C7          0.8983   -4.0679    1.1790 C.3       1 <0>        -0.1247
     12 C8          0.3248   -5.4271    0.7073 C.3       1 <0>        -0.0826
     13 C9          0.6628   -5.4787   -0.7970 C.3       1 <0>         0.0841
     14 C10         0.8350   -4.0212   -1.2591 C.3       1 <0>         0.0562
     15 O1          2.1589   -3.8188   -1.7574 O.3       1 <0>        -0.5551
     16 O2         -0.4047   -6.0978   -1.5176 O.3       1 <0>        -0.5484
     17 C11         1.0033   -6.5809    1.4485 C.3       1 <0>         0.0845
     18 O3          0.3795   -7.8137    1.0837 O.3       1 <0>        -0.5650
     19 N5          3.4393    2.2295   -0.0193 N.pl3     1 <0>        -0.8188
     20 H1         -0.9693    1.8187    0.0257 H         1 <0>         0.2039
     21 H2          3.4551   -2.9572   -0.0459 H         1 <0>         0.2192
     22 H3         -0.4393   -2.7938    0.0117 H         1 <0>         0.1272
     23 H4          1.9723   -4.1404    1.3505 H         1 <0>         0.0873
     24 H5          0.3852   -3.7227    2.0766 H         1 <0>         0.0910
     25 H6         -0.7544   -5.4584    0.8571 H         1 <0>         0.1036
     26 H7          1.5891   -6.0317   -0.9528 H         1 <0>         0.0753
     27 H8          0.1043   -3.7860   -2.0330 H         1 <0>         0.0792
     28 H9          2.3708   -4.3490   -2.5378 H         1 <0>         0.3859
     29 H10        -0.2519   -6.1602   -2.4704 H         1 <0>         0.3779
     30 H11         2.0591   -6.6144    1.1797 H         1 <0>         0.0487
     31 H12         0.9067   -6.4289    2.5235 H         1 <0>         0.0530
     32 H13         0.7597   -8.5901    1.5169 H         1 <0>         0.3811
     33 H14         3.3774    3.1975   -0.0138 H         1 <0>         0.4100
     34 H15         4.3085    1.7992   -0.0299 H         1 <0>         0.4185
@<TRIPOS>BOND
     1    1    6 ar
     2    1    2 ar
     3    1   20 1
     4    2    3 ar
     5    3    4 ar
     6    3   19 1
     7    4    9 1
     8    4    5 ar
     9    5    6 ar
    10    5    7 1
    11    7    8 1
    12    7   10 1
    13    8    9 2
    14    8   21 1
    15   10   14 1
    16   10   11 1
    17   10   22 1
    18   11   12 1
    19   11   23 1
    20   11   24 1
    21   12   13 1
    22   12   17 1
    23   12   25 1
    24   13   14 1
    25   13   16 1
    26   13   26 1
    27   14   15 1
    28   14   27 1
    29   15   28 1
    30   16   29 1
    31   17   18 1
    32   17   30 1
    33   17   31 1
    34   18   32 1
    35   19   33 1
    36   19   34 1
@<TRIPOS>MOLECULE
CHEMBL18802__5
   34    36     0     0     0
SMALL
USER_CHARGES

@<TRIPOS>ATOM
      1 C1         -0.0158    1.3119    0.0093 C.ar      1 <0>         0.3665
      2 N1          1.0888    2.0360    0.0026 N.ar      1 <0>        -0.5934
      3 C2          2.2875    1.4625   -0.0119 C.ar      1 <0>         0.5097
      4 C3          2.3582    0.0588   -0.0202 C.ar      1 <0>        -0.1144
      5 C4          1.1547   -0.6659   -0.0126 C.ar      1 <0>         0.3110
      6 N2          0.0021   -0.0041    0.0020 N.ar      1 <0>        -0.5570
      7 N3          1.5110   -1.9908   -0.0227 N.pl3     1 <0>        -0.4616
      8 C5          2.8729   -2.0476   -0.0358 C.2       1 <0>         0.2426
      9 N4          3.3680   -0.8441   -0.0343 N.2       1 <0>        -0.4576
     10 C6          0.5956   -3.1347   -0.0195 C.3       1 <0>         0.1489
     11 C7          0.9163   -4.0910    1.1559 C.3       1 <0>        -0.1235
     12 C8          0.3532   -5.4529    0.6999 C.3       1 <0>        -0.0846
     13 C9          0.2987   -5.4137   -0.8373 C.3       1 <0>         0.0842
     14 C10         0.8307   -4.0292   -1.2619 C.3       1 <0>         0.0568
     15 O1          0.0951   -3.5328   -2.3820 O.3       1 <0>        -0.5438
     16 O2         -1.0487   -5.5783   -1.2838 O.3       1 <0>        -0.5432
     17 C11         1.2750   -6.5828    1.1630 C.3       1 <0>         0.0826
     18 O3          0.6850   -7.8428    0.8370 O.3       1 <0>        -0.5685
     19 N5          3.4393    2.2295   -0.0193 N.pl3     1 <0>        -0.8177
     20 H1         -0.9693    1.8187    0.0257 H         1 <0>         0.2054
     21 H2          3.4551   -2.9572   -0.0459 H         1 <0>         0.2179
     22 H3         -0.4403   -2.7984    0.0240 H         1 <0>         0.1299
     23 H4          1.9931   -4.1563    1.3117 H         1 <0>         0.0851
     24 H5          0.4177   -3.7575    2.0660 H         1 <0>         0.0937
     25 H6         -0.6482   -5.5976    1.1054 H         1 <0>         0.1056
     26 H7          0.9291   -6.1995   -1.2535 H         1 <0>         0.0730
     27 H8          1.8937   -4.0846   -1.4966 H         1 <0>         0.0756
     28 H9          0.2057   -4.0555   -3.1880 H         1 <0>         0.3807
     29 H10        -1.1491   -5.5625   -2.2454 H         1 <0>         0.3784
     30 H11         2.2394   -6.4929    0.6630 H         1 <0>         0.0493
     31 H12         1.4175   -6.5165    2.2417 H         1 <0>         0.0558
     32 H13         1.2162   -8.6062    1.1021 H         1 <0>         0.3834
     33 H14         3.3774    3.1975   -0.0138 H         1 <0>         0.4108
     34 H15         4.3085    1.7992   -0.0299 H         1 <0>         0.4186
@<TRIPOS>BOND
     1    1    6 ar
     2    1    2 ar
     3    1   20 1
     4    2    3 ar
     5    3    4 ar
     6    3   19 1
     7    4    9 1
     8    4    5 ar
     9    5    6 ar
    10    5    7 1
    11    7    8 1
    12    7   10 1
    13    8    9 2
    14    8   21 1
    15   10   14 1
    16   10   11 1
    17   10   22 1
    18   11   12 1
    19   11   23 1
    20   11   24 1
    21   12   13 1
    22   12   17 1
    23   12   25 1
    24   13   14 1
    25   13   16 1
    26   13   26 1
    27   14   15 1
    28   14   27 1
    29   15   28 1
    30   16   29 1
    31   17   18 1
    32   17   30 1
    33   17   31 1
    34   18   32 1
    35   19   33 1
    36   19   34 1
@<TRIPOS>MOLECULE
CHEMBL18802__6
   34    36     0     0     0
SMALL
USER_CHARGES

@<TRIPOS>ATOM
      1 C1         -0.0158    1.3119    0.0093 C.ar      1 <0>         0.3592
      2 N1          1.0888    2.0360    0.0026 N.ar      1 <0>        -0.5945
      3 C2          2.2875    1.4625   -0.0119 C.ar      1 <0>         0.5052
      4 C3          2.3582    0.0588   -0.0202 C.ar      1 <0>        -0.1068
      5 C4          1.1547   -0.6659   -0.0126 C.ar      1 <0>         0.2966
      6 N2          0.0021   -0.0041    0.0020 N.ar      1 <0>        -0.5619
      7 N3          1.5110   -1.9908   -0.0227 N.pl3     1 <0>        -0.4495
      8 C5          2.8729   -2.0476   -0.0358 C.2       1 <0>         0.2886
      9 N4          3.3680   -0.8441   -0.0343 N.2       1 <0>        -0.4753
     10 C6          0.5956   -3.1347   -0.0195 C.3       1 <0>         0.1503
     11 C7          0.8667   -4.0250    1.2108 C.3       1 <0>        -0.1262
     12 C8          0.6595   -5.4683    0.6883 C.3       1 <0>        -0.0809
     13 C9          1.2561   -5.4038   -0.7396 C.3       1 <0>         0.0790
     14 C10         0.8432   -4.0113   -1.2596 C.3       1 <0>         0.0568
     15 O1          1.8936   -3.4534   -2.0517 O.3       1 <0>        -0.5451
     16 O2          2.6797   -5.5181   -0.6924 O.3       1 <0>        -0.5446
     17 C11         1.4259   -6.4726    1.5513 C.3       1 <0>         0.0886
     18 O3          1.1239   -7.8006    1.1186 O.3       1 <0>        -0.5742
     19 N5          3.4393    2.2295   -0.0193 N.pl3     1 <0>        -0.8195
     20 H1         -0.9693    1.8187    0.0257 H         1 <0>         0.2028
     21 H2          3.4551   -2.9572   -0.0459 H         1 <0>         0.2178
     22 H3         -0.4371   -2.7861   -0.0088 H         1 <0>         0.1190
     23 H4          1.8897   -3.8895    1.5618 H         1 <0>         0.0878
     24 H5          0.1565   -3.8019    2.0070 H         1 <0>         0.0875
     25 H6         -0.4010   -5.7178    0.6530 H         1 <0>         0.1020
     26 H7          0.8301   -6.1869   -1.3668 H         1 <0>         0.0752
     27 H8         -0.0696   -4.0889   -1.8503 H         1 <0>         0.0808
     28 H9          2.0972   -3.9613   -2.8490 H         1 <0>         0.3817
     29 H10         3.1060   -5.4839   -1.5597 H         1 <0>         0.3797
     30 H11         2.4965   -6.2932    1.4534 H         1 <0>         0.0635
     31 H12         1.1316   -6.3546    2.5942 H         1 <0>         0.0460
     32 H13         1.5761   -8.4909    1.6226 H         1 <0>         0.3830
     33 H14         3.3774    3.1975   -0.0138 H         1 <0>         0.4095
     34 H15         4.3085    1.7992   -0.0299 H         1 <0>         0.4183
@<TRIPOS>BOND
     1    1    6 ar
     2    1    2 ar
     3    1   20 1
     4    2    3 ar
     5    3    4 ar
     6    3   19 1
     7    4    9 1
     8    4    5 ar
     9    5    6 ar
    10    5    7 1
    11    7    8 1
    12    7   10 1
    13    8    9 2
    14    8   21 1
    15   10   14 1
    16   10   11 1
    17   10   22 1
    18   11   12 1
    19   11   23 1
    20   11   24 1
    21   12   13 1
    22   12   17 1
    23   12   25 1
    24   13   14 1
    25   13   16 1
    26   13   26 1
    27   14   15 1
    28   14   27 1
    29   15   28 1
    30   16   29 1
    31   17   18 1
    32   17   30 1
    33   17   31 1
    34   18   32 1
    35   19   33 1
    36   19   34 1
@<TRIPOS>MOLECULE
CHEMBL18802__7
   34    36     0     0     0
SMALL
USER_CHARGES

@<TRIPOS>ATOM
      1 C1         -0.0158    1.3119    0.0093 C.ar      1 <0>         0.3659
      2 N1          1.0888    2.0360    0.0026 N.ar      1 <0>        -0.5930
      3 C2          2.2875    1.4625   -0.0119 C.ar      1 <0>         0.5094
      4 C3          2.3582    0.0588   -0.0202 C.ar      1 <0>        -0.1131
      5 C4          1.1547   -0.6659   -0.0126 C.ar      1 <0>         0.3049
      6 N2          0.0021   -0.0041    0.0020 N.ar      1 <0>        -0.5586
      7 N3          1.5110   -1.9908   -0.0227 N.pl3     1 <0>        -0.4643
      8 C5          2.8729   -2.0476   -0.0358 C.2       1 <0>         0.2498
      9 N4          3.3680   -0.8441   -0.0343 N.2       1 <0>        -0.4599
     10 C6          0.5956   -3.1347   -0.0195 C.3       1 <0>         0.1476
     11 C7          0.8667   -4.0250    1.2108 C.3       1 <0>        -0.1224
     12 C8          0.6595   -5.4683    0.6883 C.3       1 <0>        -0.0776
     13 C9          1.2561   -5.4038   -0.7396 C.3       1 <0>         0.0808
     14 C10         0.8432   -4.0113   -1.2596 C.3       1 <0>         0.0610
     15 O1         -0.3535   -4.1130   -2.0340 O.3       1 <0>        -0.5504
     16 O2          2.6797   -5.5181   -0.6924 O.3       1 <0>        -0.5524
     17 C11         1.4259   -6.4726    1.5513 C.3       1 <0>         0.0874
     18 O3          1.1239   -7.8006    1.1186 O.3       1 <0>        -0.5735
     19 N5          3.4393    2.2295   -0.0193 N.pl3     1 <0>        -0.8174
     20 H1         -0.9693    1.8187    0.0257 H         1 <0>         0.2055
     21 H2          3.4551   -2.9572   -0.0459 H         1 <0>         0.2225
     22 H3         -0.4371   -2.7861   -0.0088 H         1 <0>         0.1265
     23 H4          1.8897   -3.8895    1.5618 H         1 <0>         0.0874
     24 H5          0.1565   -3.8019    2.0070 H         1 <0>         0.0889
     25 H6         -0.4010   -5.7178    0.6530 H         1 <0>         0.1038
     26 H7          0.8301   -6.1869   -1.3668 H         1 <0>         0.0787
     27 H8          1.6444   -3.5857   -1.8638 H         1 <0>         0.0719
     28 H9         -0.2618   -4.6538   -2.8304 H         1 <0>         0.3867
     29 H10         3.1060   -5.4839   -1.5597 H         1 <0>         0.3821
     30 H11         2.4965   -6.2932    1.4534 H         1 <0>         0.0630
     31 H12         1.1316   -6.3546    2.5942 H         1 <0>         0.0462
     32 H13         1.5761   -8.4909    1.6226 H         1 <0>         0.3826
     33 H14         3.3774    3.1975   -0.0138 H         1 <0>         0.4109
     34 H15         4.3085    1.7992   -0.0299 H         1 <0>         0.4189
@<TRIPOS>BOND
     1    1    6 ar
     2    1    2 ar
     3    1   20 1
     4    2    3 ar
     5    3    4 ar
     6    3   19 1
     7    4    9 1
     8    4    5 ar
     9    5    6 ar
    10    5    7 1
    11    7    8 1
    12    7   10 1
    13    8    9 2
    14    8   21 1
    15   10   14 1
    16   10   11 1
    17   10   22 1
    18   11   12 1
    19   11   23 1
    20   11   24 1
    21   12   13 1
    22   12   17 1
    23   12   25 1
    24   13   14 1
    25   13   16 1
    26   13   26 1
    27   14   15 1
    28   14   27 1
    29   15   28 1
    30   16   29 1
    31   17   18 1
    32   17   30 1
    33   17   31 1
    34   18   32 1
    35   19   33 1
    36   19   34 1
@<TRIPOS>MOLECULE
CHEMBL18802__8
   34    36     0     0     0
SMALL
USER_CHARGES

@<TRIPOS>ATOM
      1 C1         -0.0158    1.3119    0.0093 C.ar      1 <0>         0.3664
      2 N1          1.0888    2.0360    0.0026 N.ar      1 <0>        -0.5932
      3 C2          2.2875    1.4625   -0.0119 C.ar      1 <0>         0.5098
      4 C3          2.3582    0.0588   -0.0202 C.ar      1 <0>        -0.1139
      5 C4          1.1547   -0.6659   -0.0126 C.ar      1 <0>         0.3085
      6 N2          0.0021   -0.0041    0.0020 N.ar      1 <0>        -0.5579
      7 N3          1.5110   -1.9908   -0.0227 N.pl3     1 <0>        -0.4632
      8 C5          2.8729   -2.0476   -0.0358 C.2       1 <0>         0.2458
      9 N4          3.3680   -0.8441   -0.0343 N.2       1 <0>        -0.4578
     10 C6          0.5956   -3.1347   -0.0195 C.3       1 <0>         0.1474
     11 C7          0.8748   -4.0558   -1.2330 C.3       1 <0>        -0.1231
     12 C8          0.3105   -5.4197   -0.7638 C.3       1 <0>        -0.0799
     13 C9          0.6777   -5.4864    0.7330 C.3       1 <0>         0.0828
     14 C10         0.8590   -4.0335    1.2063 C.3       1 <0>         0.0581
     15 O1         -0.0789   -3.7355    2.2424 O.3       1 <0>        -0.5528
     16 O2          1.8957   -6.2133    0.9063 O.3       1 <0>        -0.5508
     17 C11         0.9743   -6.5659   -1.5296 C.3       1 <0>         0.0916
     18 O3          0.3576   -7.8024   -1.1651 O.3       1 <0>        -0.5708
     19 N5          3.4393    2.2295   -0.0193 N.pl3     1 <0>        -0.8174
     20 H1         -0.9693    1.8187    0.0257 H         1 <0>         0.2056
     21 H2          3.4551   -2.9572   -0.0459 H         1 <0>         0.2197
     22 H3         -0.4396   -2.7936   -0.0271 H         1 <0>         0.1285
     23 H4          0.3444   -3.7017   -2.1169 H         1 <0>         0.0913
     24 H5          1.9453   -4.1265   -1.4261 H         1 <0>         0.0877
     25 H6         -0.7715   -5.4497   -0.8929 H         1 <0>         0.1011
     26 H7         -0.1257   -5.9642    1.2936 H         1 <0>         0.0781
     27 H8          1.8761   -3.8829    1.5681 H         1 <0>         0.0764
     28 H9          0.0349   -4.2685    3.0411 H         1 <0>         0.3844
     29 H10         2.1803   -6.2901    1.8273 H         1 <0>         0.3789
     30 H11         0.8568   -6.4032   -2.6010 H         1 <0>         0.0449
     31 H12         2.0351   -6.6021   -1.2818 H         1 <0>         0.0626
     32 H13         0.7292   -8.5745   -1.6135 H         1 <0>         0.3817
     33 H14         3.3774    3.1975   -0.0138 H         1 <0>         0.4110
     34 H15         4.3085    1.7992   -0.0299 H         1 <0>         0.4188
@<TRIPOS>BOND
     1    1    6 ar
     2    1    2 ar
     3    1   20 1
     4    2    3 ar
     5    3    4 ar
     6    3   19 1
     7    4    9 1
     8    4    5 ar
     9    5    6 ar
    10    5    7 1
    11    7    8 1
    12    7   10 1
    13    8    9 2
    14    8   21 1
    15   10   14 1
    16   10   11 1
    17   10   22 1
    18   11   12 1
    19   11   23 1
    20   11   24 1
    21   12   13 1
    22   12   17 1
    23   12   25 1
    24   13   14 1
    25   13   16 1
    26   13   26 1
    27   14   15 1
    28   14   27 1
    29   15   28 1
    30   16   29 1
    31   17   18 1
    32   17   30 1
    33   17   31 1
    34   18   32 1
    35   19   33 1
    36   19   34 1
@<TRIPOS>MOLECULE
CHEMBL18802__9
   34    36     0     0     0
SMALL
USER_CHARGES

@<TRIPOS>ATOM
      1 C1         -0.0158    1.3119    0.0093 C.ar      1 <0>         0.3601
      2 N1          1.0888    2.0360    0.0026 N.ar      1 <0>        -0.5939
      3 C2          2.2875    1.4625   -0.0119 C.ar      1 <0>         0.5058
      4 C3          2.3582    0.0588   -0.0202 C.ar      1 <0>        -0.1072
      5 C4          1.1547   -0.6659   -0.0126 C.ar      1 <0>         0.2942
      6 N2          0.0021   -0.0041    0.0020 N.ar      1 <0>        -0.5618
      7 N3          1.5110   -1.9908   -0.0227 N.pl3     1 <0>        -0.4547
      8 C5          2.8729   -2.0476   -0.0358 C.2       1 <0>         0.2900
      9 N4          3.3680   -0.8441   -0.0343 N.2       1 <0>        -0.4753
     10 C6          0.5956   -3.1347   -0.0195 C.3       1 <0>         0.1488
     11 C7          0.8748   -4.0558   -1.2330 C.3       1 <0>        -0.1251
     12 C8          0.3105   -5.4197   -0.7638 C.3       1 <0>        -0.0812
     13 C9          0.6777   -5.4864    0.7330 C.3       1 <0>         0.0829
     14 C10         0.8590   -4.0335    1.2063 C.3       1 <0>         0.0570
     15 O1          2.1924   -3.8360    1.6806 O.3       1 <0>        -0.5436
     16 O2          1.8957   -6.2133    0.9063 O.3       1 <0>        -0.5393
     17 C11         0.9743   -6.5659   -1.5296 C.3       1 <0>         0.0926
     18 O3          0.3576   -7.8024   -1.1651 O.3       1 <0>        -0.5717
     19 N5          3.4393    2.2295   -0.0193 N.pl3     1 <0>        -0.8190
     20 H1         -0.9693    1.8187    0.0257 H         1 <0>         0.2035
     21 H2          3.4551   -2.9572   -0.0459 H         1 <0>         0.2204
     22 H3         -0.4396   -2.7936   -0.0271 H         1 <0>         0.1254
     23 H4          0.3444   -3.7017   -2.1169 H         1 <0>         0.0866
     24 H5          1.9453   -4.1265   -1.4261 H         1 <0>         0.0879
     25 H6         -0.7715   -5.4497   -0.8929 H         1 <0>         0.0989
     26 H7         -0.1257   -5.9642    1.2936 H         1 <0>         0.0724
     27 H8          0.1436   -3.8062    1.9966 H         1 <0>         0.0744
     28 H9          2.4194   -4.3740    2.4514 H         1 <0>         0.3814
     29 H10         2.1803   -6.2901    1.8273 H         1 <0>         0.3740
     30 H11         0.8568   -6.4032   -2.6010 H         1 <0>         0.0437
     31 H12         2.0351   -6.6021   -1.2818 H         1 <0>         0.0630
     32 H13         0.7292   -8.5745   -1.6135 H         1 <0>         0.3815
     33 H14         3.3774    3.1975   -0.0138 H         1 <0>         0.4098
     34 H15         4.3085    1.7992   -0.0299 H         1 <0>         0.4186
@<TRIPOS>BOND
     1    1    6 ar
     2    1    2 ar
     3    1   20 1
     4    2    3 ar
     5    3    4 ar
     6    3   19 1
     7    4    9 1
     8    4    5 ar
     9    5    6 ar
    10    5    7 1
    11    7    8 1
    12    7   10 1
    13    8    9 2
    14    8   21 1
    15   10   14 1
    16   10   11 1
    17   10   22 1
    18   11   12 1
    19   11   23 1
    20   11   24 1
    21   12   13 1
    22   12   17 1
    23   12   25 1
    24   13   14 1
    25   13   16 1
    26   13   26 1
    27   14   15 1
    28   14   27 1
    29   15   28 1
    30   16   29 1
    31   17   18 1
    32   17   30 1
    33   17   31 1
    34   18   32 1
    35   19   33 1
    36   19   34 1
@<TRIPOS>MOLECULE
CHEMBL18802__10
   34    36     0     0     0
SMALL
USER_CHARGES

@<TRIPOS>ATOM
      1 C1         -0.0158    1.3119    0.0093 C.ar      1 <0>         0.3671
      2 N1          1.0888    2.0360    0.0026 N.ar      1 <0>        -0.5931
      3 C2          2.2875    1.4625   -0.0119 C.ar      1 <0>         0.5100
      4 C3          2.3582    0.0588   -0.0202 C.ar      1 <0>        -0.1143
      5 C4          1.1547   -0.6659   -0.0126 C.ar      1 <0>         0.3099
      6 N2          0.0021   -0.0041    0.0020 N.ar      1 <0>        -0.5575
      7 N3          1.5110   -1.9908   -0.0227 N.pl3     1 <0>        -0.4639
      8 C5          2.8729   -2.0476   -0.0358 C.2       1 <0>         0.2425
      9 N4          3.3680   -0.8441   -0.0343 N.2       1 <0>        -0.4568
     10 C6          0.5956   -3.1347   -0.0195 C.3       1 <0>         0.1472
     11 C7          0.8748   -4.0558   -1.2330 C.3       1 <0>        -0.1224
     12 C8          0.3105   -5.4197   -0.7638 C.3       1 <0>        -0.0830
     13 C9          0.6777   -5.4864    0.7330 C.3       1 <0>         0.0840
     14 C10         0.8590   -4.0335    1.2063 C.3       1 <0>         0.0571
     15 O1         -0.0789   -3.7355    2.2424 O.3       1 <0>        -0.5414
     16 O2         -0.3756   -6.1128    1.4680 O.3       1 <0>        -0.5363
     17 C11         0.9743   -6.5659   -1.5296 C.3       1 <0>         0.0840
     18 O3          0.3576   -7.8024   -1.1651 O.3       1 <0>        -0.5641
     19 N5          3.4393    2.2295   -0.0193 N.pl3     1 <0>        -0.8174
     20 H1         -0.9693    1.8187    0.0257 H         1 <0>         0.2058
     21 H2          3.4551   -2.9572   -0.0459 H         1 <0>         0.2187
     22 H3         -0.4396   -2.7936   -0.0271 H         1 <0>         0.1299
     23 H4          0.3444   -3.7017   -2.1169 H         1 <0>         0.0952
     24 H5          1.9453   -4.1265   -1.4261 H         1 <0>         0.0867
     25 H6         -0.7715   -5.4497   -0.8929 H         1 <0>         0.1053
     26 H7          1.6068   -6.0408    0.8652 H         1 <0>         0.0706
     27 H8          1.8761   -3.8829    1.5681 H         1 <0>         0.0711
     28 H9          0.0349   -4.2685    3.0411 H         1 <0>         0.3797
     29 H10        -0.2043   -6.1847    2.4170 H         1 <0>         0.3732
     30 H11         0.8568   -6.4032   -2.6010 H         1 <0>         0.0534
     31 H12         2.0351   -6.6021   -1.2818 H         1 <0>         0.0481
     32 H13         0.7292   -8.5745   -1.6135 H         1 <0>         0.3811
     33 H14         3.3774    3.1975   -0.0138 H         1 <0>         0.4110
     34 H15         4.3085    1.7992   -0.0299 H         1 <0>         0.4187
@<TRIPOS>BOND
     1    1    6 ar
     2    1    2 ar
     3    1   20 1
     4    2    3 ar
     5    3    4 ar
     6    3   19 1
     7    4    9 1
     8    4    5 ar
     9    5    6 ar
    10    5    7 1
    11    7    8 1
    12    7   10 1
    13    8    9 2
    14    8   21 1
    15   10   14 1
    16   10   11 1
    17   10   22 1
    18   11   12 1
    19   11   23 1
    20   11   24 1
    21   12   13 1
    22   12   17 1
    23   12   25 1
    24   13   14 1
    25   13   16 1
    26   13   26 1
    27   14   15 1
    28   14   27 1
    29   15   28 1
    30   16   29 1
    31   17   18 1
    32   17   30 1
    33   17   31 1
    34   18   32 1
    35   19   33 1
    36   19   34 1
@<TRIPOS>MOLECULE
CHEMBL18802__11
   34    36     0     0     0
SMALL
USER_CHARGES

@<TRIPOS>ATOM
      1 C1         -0.0158    1.3119    0.0093 C.ar      1 <0>         0.3611
      2 N1          1.0888    2.0360    0.0026 N.ar      1 <0>        -0.5936
      3 C2          2.2875    1.4625   -0.0119 C.ar      1 <0>         0.5061
      4 C3          2.3582    0.0588   -0.0202 C.ar      1 <0>        -0.1077
      5 C4          1.1547   -0.6659   -0.0126 C.ar      1 <0>         0.2957
      6 N2          0.0021   -0.0041    0.0020 N.ar      1 <0>        -0.5614
      7 N3          1.5110   -1.9908   -0.0227 N.pl3     1 <0>        -0.4559
      8 C5          2.8729   -2.0476   -0.0358 C.2       1 <0>         0.2866
      9 N4          3.3680   -0.8441   -0.0343 N.2       1 <0>        -0.4737
     10 C6          0.5956   -3.1347   -0.0195 C.3       1 <0>         0.1508
     11 C7          0.8748   -4.0558   -1.2330 C.3       1 <0>        -0.1247
     12 C8          0.3105   -5.4197   -0.7638 C.3       1 <0>        -0.0826
     13 C9          0.6777   -5.4864    0.7330 C.3       1 <0>         0.0841
     14 C10         0.8590   -4.0335    1.2063 C.3       1 <0>         0.0562
     15 O1          2.1924   -3.8360    1.6806 O.3       1 <0>        -0.5550
     16 O2         -0.3756   -6.1128    1.4680 O.3       1 <0>        -0.5484
     17 C11         0.9743   -6.5659   -1.5296 C.3       1 <0>         0.0845
     18 O3          0.3576   -7.8024   -1.1651 O.3       1 <0>        -0.5650
     19 N5          3.4393    2.2295   -0.0193 N.pl3     1 <0>        -0.8188
     20 H1         -0.9693    1.8187    0.0257 H         1 <0>         0.2039
     21 H2          3.4551   -2.9572   -0.0459 H         1 <0>         0.2192
     22 H3         -0.4396   -2.7936   -0.0271 H         1 <0>         0.1272
     23 H4          0.3444   -3.7017   -2.1169 H         1 <0>         0.0910
     24 H5          1.9453   -4.1265   -1.4261 H         1 <0>         0.0873
     25 H6         -0.7715   -5.4497   -0.8929 H         1 <0>         0.1036
     26 H7          1.6068   -6.0408    0.8652 H         1 <0>         0.0753
     27 H8          0.1436   -3.8062    1.9966 H         1 <0>         0.0792
     28 H9          2.4194   -4.3740    2.4514 H         1 <0>         0.3859
     29 H10        -0.2043   -6.1847    2.4170 H         1 <0>         0.3779
     30 H11         0.8568   -6.4032   -2.6010 H         1 <0>         0.0530
     31 H12         2.0351   -6.6021   -1.2818 H         1 <0>         0.0487
     32 H13         0.7292   -8.5745   -1.6135 H         1 <0>         0.3811
     33 H14         3.3774    3.1975   -0.0138 H         1 <0>         0.4100
     34 H15         4.3085    1.7992   -0.0299 H         1 <0>         0.4185
@<TRIPOS>BOND
     1    1    6 ar
     2    1    2 ar
     3    1   20 1
     4    2    3 ar
     5    3    4 ar
     6    3   19 1
     7    4    9 1
     8    4    5 ar
     9    5    6 ar
    10    5    7 1
    11    7    8 1
    12    7   10 1
    13    8    9 2
    14    8   21 1
    15   10   14 1
    16   10   11 1
    17   10   22 1
    18   11   12 1
    19   11   23 1
    20   11   24 1
    21   12   13 1
    22   12   17 1
    23   12   25 1
    24   13   14 1
    25   13   16 1
    26   13   26 1
    27   14   15 1
    28   14   27 1
    29   15   28 1
    30   16   29 1
    31   17   18 1
    32   17   30 1
    33   17   31 1
    34   18   32 1
    35   19   33 1
    36   19   34 1
@<TRIPOS>MOLECULE
CHEMBL18802__12
   34    36     0     0     0
SMALL
USER_CHARGES

@<TRIPOS>ATOM
      1 C1         -0.0158    1.3119    0.0093 C.ar      1 <0>         0.3664
      2 N1          1.0888    2.0360    0.0026 N.ar      1 <0>        -0.5930
      3 C2          2.2875    1.4625   -0.0119 C.ar      1 <0>         0.5102
      4 C3          2.3582    0.0588   -0.0202 C.ar      1 <0>        -0.1131
      5 C4          1.1547   -0.6659   -0.0126 C.ar      1 <0>         0.3061
      6 N2          0.0021   -0.0041    0.0020 N.ar      1 <0>        -0.5587
      7 N3          1.5110   -1.9908   -0.0227 N.pl3     1 <0>        -0.4649
      8 C5          2.8729   -2.0476   -0.0358 C.2       1 <0>         0.2481
      9 N4          3.3680   -0.8441   -0.0343 N.2       1 <0>        -0.4574
     10 C6          0.5956   -3.1347   -0.0195 C.3       1 <0>         0.1460
     11 C7          0.8426   -4.0126   -1.2637 C.3       1 <0>        -0.1239
     12 C8          1.7995   -5.1222   -0.7618 C.3       1 <0>        -0.0874
     13 C9          1.2698   -5.4108    0.6648 C.3       1 <0>         0.0800
     14 C10         0.8672   -4.0237    1.2067 C.3       1 <0>         0.0572
     15 O1         -0.3141   -4.1333    2.0032 O.3       1 <0>        -0.5540
     16 O2          2.2986   -5.9845    1.4738 O.3       1 <0>        -0.5432
     17 C11         1.6931   -6.3690   -1.6422 C.3       1 <0>         0.0856
     18 O3          2.6671   -7.3292   -1.2279 O.3       1 <0>        -0.5616
     19 N5          3.4393    2.2295   -0.0193 N.pl3     1 <0>        -0.8170
     20 H1         -0.9693    1.8187    0.0257 H         1 <0>         0.2057
     21 H2          3.4551   -2.9572   -0.0459 H         1 <0>         0.2192
     22 H3         -0.4371   -2.7861   -0.0066 H         1 <0>         0.1290
     23 H4         -0.0931   -4.4465   -1.6163 H         1 <0>         0.0998
     24 H5          1.3156   -3.4297   -2.0541 H         1 <0>         0.0915
     25 H6          2.8268   -4.7595   -0.7264 H         1 <0>         0.0982
     26 H7          0.4031   -6.0705    0.6237 H         1 <0>         0.0793
     27 H8          1.6801   -3.6041    1.7994 H         1 <0>         0.0790
     28 H9         -0.2070   -4.6820    2.7922 H         1 <0>         0.3853
     29 H10         2.0216   -6.1856    2.3782 H         1 <0>         0.3767
     30 H11         0.6958   -6.7981   -1.5454 H         1 <0>         0.0486
     31 H12         1.8718   -6.0958   -2.6821 H         1 <0>         0.0519
     32 H13         2.6571   -8.1471   -1.7436 H         1 <0>         0.3801
     33 H14         3.3774    3.1975   -0.0138 H         1 <0>         0.4111
     34 H15         4.3085    1.7992   -0.0299 H         1 <0>         0.4191
@<TRIPOS>BOND
     1    1    6 ar
     2    1    2 ar
     3    1   20 1
     4    2    3 ar
     5    3    4 ar
     6    3   19 1
     7    4    9 1
     8    4    5 ar
     9    5    6 ar
    10    5    7 1
    11    7    8 1
    12    7   10 1
    13    8    9 2
    14    8   21 1
    15   10   14 1
    16   10   11 1
    17   10   22 1
    18   11   12 1
    19   11   23 1
    20   11   24 1
    21   12   13 1
    22   12   17 1
    23   12   25 1
    24   13   14 1
    25   13   16 1
    26   13   26 1
    27   14   15 1
    28   14   27 1
    29   15   28 1
    30   16   29 1
    31   17   18 1
    32   17   30 1
    33   17   31 1
    34   18   32 1
    35   19   33 1
    36   19   34 1
@<TRIPOS>MOLECULE
CHEMBL18802__13
   34    36     0     0     0
SMALL
USER_CHARGES

@<TRIPOS>ATOM
      1 C1         -0.0158    1.3119    0.0093 C.ar      1 <0>         0.3597
      2 N1          1.0888    2.0360    0.0026 N.ar      1 <0>        -0.5945
      3 C2          2.2875    1.4625   -0.0119 C.ar      1 <0>         0.5060
      4 C3          2.3582    0.0588   -0.0202 C.ar      1 <0>        -0.1068
      5 C4          1.1547   -0.6659   -0.0126 C.ar      1 <0>         0.2978
      6 N2          0.0021   -0.0041    0.0020 N.ar      1 <0>        -0.5620
      7 N3          1.5110   -1.9908   -0.0227 N.pl3     1 <0>        -0.4500
      8 C5          2.8729   -2.0476   -0.0358 C.2       1 <0>         0.2872
      9 N4          3.3680   -0.8441   -0.0343 N.2       1 <0>        -0.4728
     10 C6          0.5956   -3.1347   -0.0195 C.3       1 <0>         0.1491
     11 C7          0.8426   -4.0126   -1.2637 C.3       1 <0>        -0.1299
     12 C8          1.7995   -5.1222   -0.7618 C.3       1 <0>        -0.0849
     13 C9          1.2698   -5.4108    0.6648 C.3       1 <0>         0.0798
     14 C10         0.8672   -4.0237    1.2067 C.3       1 <0>         0.0552
     15 O1          1.9329   -3.4736    1.9837 O.3       1 <0>        -0.5408
     16 O2          2.2986   -5.9845    1.4738 O.3       1 <0>        -0.5358
     17 C11         1.6931   -6.3690   -1.6422 C.3       1 <0>         0.0848
     18 O3          2.6671   -7.3292   -1.2279 O.3       1 <0>        -0.5612
     19 N5          3.4393    2.2295   -0.0193 N.pl3     1 <0>        -0.8191
     20 H1         -0.9693    1.8187    0.0257 H         1 <0>         0.2030
     21 H2          3.4551   -2.9572   -0.0459 H         1 <0>         0.2144
     22 H3         -0.4371   -2.7861   -0.0066 H         1 <0>         0.1216
     23 H4         -0.0931   -4.4465   -1.6163 H         1 <0>         0.0976
     24 H5          1.3156   -3.4297   -2.0541 H         1 <0>         0.0913
     25 H6          2.8268   -4.7595   -0.7264 H         1 <0>         0.0986
     26 H7          0.4031   -6.0705    0.6237 H         1 <0>         0.0733
     27 H8         -0.0339   -4.1073    1.8142 H         1 <0>         0.0759
     28 H9          2.1520   -3.9895    2.7718 H         1 <0>         0.3833
     29 H10         2.0216   -6.1856    2.3782 H         1 <0>         0.3738
     30 H11         0.6958   -6.7981   -1.5454 H         1 <0>         0.0472
     31 H12         1.8718   -6.0958   -2.6821 H         1 <0>         0.0505
     32 H13         2.6571   -8.1471   -1.7436 H         1 <0>         0.3794
     33 H14         3.3774    3.1975   -0.0138 H         1 <0>         0.4097
     34 H15         4.3085    1.7992   -0.0299 H         1 <0>         0.4186
@<TRIPOS>BOND
     1    1    6 ar
     2    1    2 ar
     3    1   20 1
     4    2    3 ar
     5    3    4 ar
     6    3   19 1
     7    4    9 1
     8    4    5 ar
     9    5    6 ar
    10    5    7 1
    11    7    8 1
    12    7   10 1
    13    8    9 2
    14    8   21 1
    15   10   14 1
    16   10   11 1
    17   10   22 1
    18   11   12 1
    19   11   23 1
    20   11   24 1
    21   12   13 1
    22   12   17 1
    23   12   25 1
    24   13   14 1
    25   13   16 1
    26   13   26 1
    27   14   15 1
    28   14   27 1
    29   15   28 1
    30   16   29 1
    31   17   18 1
    32   17   30 1
    33   17   31 1
    34   18   32 1
    35   19   33 1
    36   19   34 1
@<TRIPOS>MOLECULE
CHEMBL18802__14
   34    36     0     0     0
SMALL
USER_CHARGES

@<TRIPOS>ATOM
      1 C1         -0.0158    1.3119    0.0093 C.ar      1 <0>         0.3669
      2 N1          1.0888    2.0360    0.0026 N.ar      1 <0>        -0.5931
      3 C2          2.2875    1.4625   -0.0119 C.ar      1 <0>         0.5102
      4 C3          2.3582    0.0588   -0.0202 C.ar      1 <0>        -0.1137
      5 C4          1.1547   -0.6659   -0.0126 C.ar      1 <0>         0.3070
      6 N2          0.0021   -0.0041    0.0020 N.ar      1 <0>        -0.5584
      7 N3          1.5110   -1.9908   -0.0227 N.pl3     1 <0>        -0.4649
      8 C5          2.8729   -2.0476   -0.0358 C.2       1 <0>         0.2440
      9 N4          3.3680   -0.8441   -0.0343 N.2       1 <0>        -0.4570
     10 C6          0.5956   -3.1347   -0.0195 C.3       1 <0>         0.1462
     11 C7          0.8426   -4.0126   -1.2637 C.3       1 <0>        -0.1208
     12 C8          1.7995   -5.1222   -0.7618 C.3       1 <0>        -0.0862
     13 C9          1.2698   -5.4108    0.6648 C.3       1 <0>         0.0798
     14 C10         0.8672   -4.0237    1.2067 C.3       1 <0>         0.0610
     15 O1         -0.3141   -4.1333    2.0032 O.3       1 <0>        -0.5460
     16 O2          0.1335   -6.2757    0.6109 O.3       1 <0>        -0.5417
     17 C11         1.6931   -6.3690   -1.6422 C.3       1 <0>         0.0881
     18 O3          2.6671   -7.3292   -1.2279 O.3       1 <0>        -0.5743
     19 N5          3.4393    2.2295   -0.0193 N.pl3     1 <0>        -0.8171
     20 H1         -0.9693    1.8187    0.0257 H         1 <0>         0.2058
     21 H2          3.4551   -2.9572   -0.0459 H         1 <0>         0.2178
     22 H3         -0.4371   -2.7861   -0.0066 H         1 <0>         0.1276
     23 H4         -0.0931   -4.4465   -1.6163 H         1 <0>         0.1002
     24 H5          1.3156   -3.4297   -2.0541 H         1 <0>         0.0851
     25 H6          2.8268   -4.7595   -0.7264 H         1 <0>         0.0968
     26 H7          2.0545   -5.8484    1.2819 H         1 <0>         0.0758
     27 H8          1.6801   -3.6041    1.7994 H         1 <0>         0.0738
     28 H9         -0.2070   -4.6820    2.7922 H         1 <0>         0.3828
     29 H10        -0.2393   -6.4897    1.4771 H         1 <0>         0.3798
     30 H11         0.6958   -6.7981   -1.5454 H         1 <0>         0.0647
     31 H12         1.8718   -6.0958   -2.6821 H         1 <0>         0.0466
     32 H13         2.6571   -8.1471   -1.7436 H         1 <0>         0.3831
     33 H14         3.3774    3.1975   -0.0138 H         1 <0>         0.4111
     34 H15         4.3085    1.7992   -0.0299 H         1 <0>         0.4190
@<TRIPOS>BOND
     1    1    6 ar
     2    1    2 ar
     3    1   20 1
     4    2    3 ar
     5    3    4 ar
     6    3   19 1
     7    4    9 1
     8    4    5 ar
     9    5    6 ar
    10    5    7 1
    11    7    8 1
    12    7   10 1
    13    8    9 2
    14    8   21 1
    15   10   14 1
    16   10   11 1
    17   10   22 1
    18   11   12 1
    19   11   23 1
    20   11   24 1
    21   12   13 1
    22   12   17 1
    23   12   25 1
    24   13   14 1
    25   13   16 1
    26   13   26 1
    27   14   15 1
    28   14   27 1
    29   15   28 1
    30   16   29 1
    31   17   18 1
    32   17   30 1
    33   17   31 1
    34   18   32 1
    35   19   33 1
    36   19   34 1
@<TRIPOS>MOLECULE
CHEMBL18802__15
   34    36     0     0     0
SMALL
USER_CHARGES

@<TRIPOS>ATOM
      1 C1         -0.0155    1.3118    0.0308 C.ar      1 <0>         0.3624
      2 N1          1.0891    2.0359    0.0214 N.ar      1 <0>        -0.5945
      3 C2          2.2876    1.4624   -0.0017 C.ar      1 <0>         0.5079
      4 C3          2.3582    0.0588   -0.0161 C.ar      1 <0>        -0.1096
      5 C4          1.1548   -0.6660   -0.0053 C.ar      1 <0>         0.3048
      6 N2          0.0023   -0.0042    0.0180 N.ar      1 <0>        -0.5612
      7 N3          1.5110   -1.9908   -0.0227 N.pl3     1 <0>        -0.4475
      8 C5          2.8728   -2.0476   -0.0430 C.2       1 <0>         0.2656
      9 N4          3.3679   -0.8440   -0.0391 N.2       1 <0>        -0.4657
     10 C6          0.5956   -3.1347   -0.0195 C.3       1 <0>         0.1486
     11 C7          0.7897   -3.9879   -1.2976 C.3       1 <0>        -0.1271
     12 C8          2.0335   -4.8436   -0.9516 C.3       1 <0>        -0.0905
     13 C9          1.8542   -5.1851    0.5421 C.3       1 <0>         0.0773
     14 C10         0.9400   -4.0985    1.1347 C.3       1 <0>         0.0568
     15 O1          1.6254   -3.3945    2.1723 O.3       1 <0>        -0.5502
     16 O2          1.2421   -6.4689    0.6807 O.3       1 <0>        -0.5496
     17 C11         2.0560   -6.1207   -1.7939 C.3       1 <0>         0.0918
     18 O3          3.2676   -6.8356   -1.5430 O.3       1 <0>        -0.5712
     19 N5          3.4394    2.2295   -0.0118 N.pl3     1 <0>        -0.8186
     20 H1         -0.9690    1.8185    0.0543 H         1 <0>         0.2038
     21 H2          3.4549   -2.9571   -0.0599 H         1 <0>         0.2131
     22 H3         -0.4371   -2.7955    0.0619 H         1 <0>         0.1225
     23 H4         -0.0788   -4.6224   -1.4740 H         1 <0>         0.1019
     24 H5          0.9865   -3.3517   -2.1605 H         1 <0>         0.0889
     25 H6          2.9468   -4.2686   -1.1045 H         1 <0>         0.0958
     26 H7          2.8207   -5.1755    1.0460 H         1 <0>         0.0753
     27 H8          0.0294   -4.5504    1.5280 H         1 <0>         0.0878
     28 H9          1.8694   -3.9469    2.9276 H         1 <0>         0.3843
     29 H10         1.1023   -6.7410    1.5980 H         1 <0>         0.3790
     30 H11         1.2036   -6.7461   -1.5284 H         1 <0>         0.0634
     31 H12         2.0001   -5.8600   -2.8507 H         1 <0>         0.0445
     32 H13         3.3500   -7.6582   -2.0446 H         1 <0>         0.3818
     33 H14         3.3775    3.1974   -0.0020 H         1 <0>         0.4101
     34 H15         4.3085    1.7991   -0.0287 H         1 <0>         0.4186
@<TRIPOS>BOND
     1    1    6 ar
     2    1    2 ar
     3    1   20 1
     4    2    3 ar
     5    3    4 ar
     6    3   19 1
     7    4    9 1
     8    4    5 ar
     9    5    6 ar
    10    5    7 1
    11    7    8 1
    12    7   10 1
    13    8    9 2
    14    8   21 1
    15   10   14 1
    16   10   11 1
    17   10   22 1
    18   11   12 1
    19   11   23 1
    20   11   24 1
    21   12   13 1
    22   12   17 1
    23   12   25 1
    24   13   14 1
    25   13   16 1
    26   13   26 1
    27   14   15 1
    28   14   27 1
    29   15   28 1
    30   16   29 1
    31   17   18 1
    32   17   30 1
    33   17   31 1
    34   18   32 1
    35   19   33 1
    36   19   34 1
@<TRIPOS>MOLECULE
CHEMBL296107
   30    31     0     0     0
SMALL
USER_CHARGES

@<TRIPOS>ATOM
      1 C1         -0.0158    1.3119    0.0093 C.ar      1 <0>         0.3661
      2 N1          1.0888    2.0360    0.0026 N.ar      1 <0>        -0.5932
      3 C2          2.2875    1.4625   -0.0119 C.ar      1 <0>         0.5093
      4 C3          2.3582    0.0588   -0.0202 C.ar      1 <0>        -0.1133
      5 C4          1.1547   -0.6659   -0.0126 C.ar      1 <0>         0.3032
      6 N2          0.0021   -0.0041    0.0020 N.ar      1 <0>        -0.5585
      7 N3          1.5110   -1.9908   -0.0227 N.pl3     1 <0>        -0.4696
      8 C5          2.8729   -2.0476   -0.0358 C.2       1 <0>         0.2500
      9 N4          3.3680   -0.8441   -0.0343 N.2       1 <0>        -0.4620
     10 C6          0.5956   -3.1347   -0.0195 C.3       1 <0>         0.1439
     11 C7          0.1713   -3.4424   -1.4324 C.2       1 <0>        -0.1625
     12 C8          0.3424   -4.6461   -1.9202 C.2       1 <0>        -0.1718
     13 C9         -0.0819   -4.9538   -3.3331 C.3       1 <0>         0.1348
     14 C10         1.1054   -5.5281   -4.1086 C.3       1 <0>         0.0501
     15 O1          0.6750   -5.9279   -5.4113 O.3       1 <0>        -0.5643
     16 O2         -0.5302   -3.7545   -3.9678 O.3       1 <0>        -0.5470
     17 N5          3.4393    2.2295   -0.0193 N.pl3     1 <0>        -0.8175
     18 H1         -0.9693    1.8187    0.0257 H         1 <0>         0.2053
     19 H2          3.4551   -2.9572   -0.0459 H         1 <0>         0.2213
     20 H3          1.1000   -4.0024    0.4056 H         1 <0>         0.1034
     21 H4         -0.2829   -2.8953    0.5797 H         1 <0>         0.1075
     22 H5         -0.2739   -2.6706   -2.0428 H         1 <0>         0.1274
     23 H6          0.7875   -5.4179   -1.3099 H         1 <0>         0.1253
     24 H7         -0.8928   -5.6821   -3.3185 H         1 <0>         0.1188
     25 H8          1.8816   -4.7683   -4.1997 H         1 <0>         0.0496
     26 H9          1.5033   -6.3921   -3.5764 H         1 <0>         0.0579
     27 H10         1.3778   -6.3023   -5.9600 H         1 <0>         0.3825
     28 H11         0.1415   -3.0605   -4.0163 H         1 <0>         0.3737
     29 H12         3.3774    3.1975   -0.0138 H         1 <0>         0.4110
     30 H13         4.3085    1.7992   -0.0299 H         1 <0>         0.4188
@<TRIPOS>BOND
     1    1    6 ar
     2    1    2 ar
     3    1   18 1
     4    2    3 ar
     5    3    4 ar
     6    3   17 1
     7    4    9 1
     8    4    5 ar
     9    5    6 ar
    10    5    7 1
    11    7    8 1
    12    7   10 1
    13    8    9 2
    14    8   19 1
    15   10   11 1
    16   10   20 1
    17   10   21 1
    18   11   12 2
    19   11   22 1
    20   12   13 1
    21   12   23 1
    22   13   14 1
    23   13   16 1
    24   13   24 1
    25   14   15 1
    26   14   25 1
    27   14   26 1
    28   15   27 1
    29   16   28 1
    30   17   29 1
    31   17   30 1
@<TRIPOS>MOLECULE
CHEMBL296107__1
   30    31     0     0     0
SMALL
USER_CHARGES

@<TRIPOS>ATOM
      1 C1         -0.0158    1.3119    0.0093 C.ar      1 <0>         0.3662
      2 N1          1.0888    2.0360    0.0026 N.ar      1 <0>        -0.5931
      3 C2          2.2875    1.4625   -0.0119 C.ar      1 <0>         0.5095
      4 C3          2.3582    0.0588   -0.0202 C.ar      1 <0>        -0.1130
      5 C4          1.1547   -0.6659   -0.0126 C.ar      1 <0>         0.3029
      6 N2          0.0021   -0.0041    0.0020 N.ar      1 <0>        -0.5595
      7 N3          1.5110   -1.9908   -0.0227 N.pl3     1 <0>        -0.4704
      8 C5          2.8729   -2.0476   -0.0358 C.2       1 <0>         0.2508
      9 N4          3.3680   -0.8441   -0.0343 N.2       1 <0>        -0.4618
     10 C6          0.5956   -3.1347   -0.0195 C.3       1 <0>         0.1423
     11 C7          0.1713   -3.4424   -1.4324 C.2       1 <0>        -0.1489
     12 C8          0.3424   -4.6461   -1.9202 C.2       1 <0>        -0.1704
     13 C9         -0.0819   -4.9538   -3.3331 C.3       1 <0>         0.1370
     14 C10         1.1334   -5.4103   -4.1427 C.3       1 <0>         0.0481
     15 O1          0.7554   -5.5902   -5.5090 O.3       1 <0>        -0.5640
     16 O2         -1.0631   -5.9926   -3.3203 O.3       1 <0>        -0.5454
     17 N5          3.4393    2.2295   -0.0193 N.pl3     1 <0>        -0.8172
     18 H1         -0.9693    1.8187    0.0257 H         1 <0>         0.2055
     19 H2          3.4551   -2.9572   -0.0459 H         1 <0>         0.2218
     20 H3          1.1000   -4.0024    0.4056 H         1 <0>         0.1048
     21 H4         -0.2829   -2.8953    0.5797 H         1 <0>         0.1090
     22 H5         -0.2739   -2.6706   -2.0428 H         1 <0>         0.1210
     23 H6          0.7875   -5.4179   -1.3099 H         1 <0>         0.1217
     24 H7         -0.5063   -4.0589   -3.7882 H         1 <0>         0.1086
     25 H8          1.9169   -4.6552   -4.0789 H         1 <0>         0.0555
     26 H9          1.5042   -6.3533   -3.7411 H         1 <0>         0.0517
     27 H10         1.4783   -5.8799   -6.0822 H         1 <0>         0.3823
     28 H11        -0.7540   -6.8209   -2.9284 H         1 <0>         0.3751
     29 H12         3.3774    3.1975   -0.0138 H         1 <0>         0.4111
     30 H13         4.3085    1.7992   -0.0299 H         1 <0>         0.4189
@<TRIPOS>BOND
     1    1    6 ar
     2    1    2 ar
     3    1   18 1
     4    2    3 ar
     5    3    4 ar
     6    3   17 1
     7    4    9 1
     8    4    5 ar
     9    5    6 ar
    10    5    7 1
    11    7    8 1
    12    7   10 1
    13    8    9 2
    14    8   19 1
    15   10   11 1
    16   10   20 1
    17   10   21 1
    18   11   12 2
    19   11   22 1
    20   12   13 1
    21   12   23 1
    22   13   14 1
    23   13   16 1
    24   13   24 1
    25   14   15 1
    26   14   25 1
    27   14   26 1
    28   15   27 1
    29   16   28 1
    30   17   29 1
    31   17   30 1
@<TRIPOS>MOLECULE
CHEMBL31577
   35    37     0     0     0
SMALL
USER_CHARGES

@<TRIPOS>ATOM
      1 C1         -0.0174    1.3513    0.4273 C.ar      1 <0>        -0.2308
      2 C2          1.1676    2.0191    0.5596 C.ar      1 <0>         0.1550
      3 N1          2.3292    1.3918    0.4651 N.ar      1 <0>        -0.5633
      4 C3          2.4130    0.0915    0.2392 C.ar      1 <0>         0.4771
      5 C4          1.2444   -0.6709    0.0910 C.ar      1 <0>        -0.0626
      6 C5          0.0018   -0.0208    0.1881 C.ar      1 <0>         0.1229
      7 N2         -0.9528   -0.9923    0.0054 N.pl3     1 <0>        -0.4599
      8 C6         -0.2989   -2.1715   -0.1920 C.2       1 <0>         0.2565
      9 N3          0.9875   -1.9816   -0.1406 N.2       1 <0>        -0.4734
     10 C7         -2.4046   -0.7967    0.0209 C.3       1 <0>         0.1483
     11 C8         -3.0521   -1.6317    1.1535 C.3       1 <0>        -0.1280
     12 C9         -3.1401   -3.0459    0.5280 C.3       1 <0>        -0.0899
     13 C10        -3.5060   -2.7848   -0.9477 C.3       1 <0>         0.0774
     14 C11        -3.0384   -1.3547   -1.2702 C.3       1 <0>         0.0564
     15 O1         -2.0687   -1.3817   -2.3194 O.3       1 <0>        -0.5487
     16 O2         -4.9198   -2.8897   -1.1275 O.3       1 <0>        -0.5501
     17 C12        -4.2337   -3.8675    1.2135 C.3       1 <0>         0.0917
     18 O3         -4.2187   -5.2016    0.7017 O.3       1 <0>        -0.5710
     19 N4          3.6569   -0.5191    0.1481 N.pl3     1 <0>        -0.8347
     20 H1         -0.9558    1.8793    0.5116 H         1 <0>         0.1262
     21 H2          1.1559    3.0830    0.7451 H         1 <0>         0.1602
     22 H3         -0.7780   -3.1239   -0.3644 H         1 <0>         0.2057
     23 H4         -2.6450    0.2600    0.1380 H         1 <0>         0.1151
     24 H5         -2.4166   -1.6398    2.0390 H         1 <0>         0.0897
     25 H6         -4.0456   -1.2528    1.3931 H         1 <0>         0.1005
     26 H7         -2.1787   -3.5547    0.5984 H         1 <0>         0.0962
     27 H8         -2.9933   -3.4994   -1.5916 H         1 <0>         0.0749
     28 H9         -3.8898   -0.7407   -1.5637 H         1 <0>         0.0864
     29 H10        -2.4067   -1.7232   -3.1587 H         1 <0>         0.3840
     30 H11        -5.2133   -2.7358   -2.0359 H         1 <0>         0.3788
     31 H12        -4.0525   -3.8886    2.2882 H         1 <0>         0.0444
     32 H13        -5.2054   -3.4141    1.0177 H         1 <0>         0.0630
     33 H14        -4.8876   -5.7804    1.0925 H         1 <0>         0.3818
     34 H15         4.4646    0.0082    0.2502 H         1 <0>         0.4056
     35 H16         3.7181   -1.4728   -0.0176 H         1 <0>         0.4146
@<TRIPOS>BOND
     1    1    6 ar
     2    1    2 ar
     3    1   20 1
     4    2    3 ar
     5    2   21 1
     6    3    4 ar
     7    4    5 ar
     8    4   19 1
     9    5    9 1
    10    5    6 ar
    11    6    7 1
    12    7    8 1
    13    7   10 1
    14    8    9 2
    15    8   22 1
    16   10   14 1
    17   10   11 1
    18   10   23 1
    19   11   12 1
    20   11   24 1
    21   11   25 1
    22   12   13 1
    23   12   17 1
    24   12   26 1
    25   13   14 1
    26   13   16 1
    27   13   27 1
    28   14   15 1
    29   14   28 1
    30   15   29 1
    31   16   30 1
    32   17   18 1
    33   17   31 1
    34   17   32 1
    35   18   33 1
    36   19   34 1
    37   19   35 1
@<TRIPOS>MOLECULE
CHEMBL31577__1
   35    37     0     0     0
SMALL
USER_CHARGES

@<TRIPOS>ATOM
      1 C1         -0.0168    1.3888    0.0097 C.ar      1 <0>        -0.2281
      2 C2          1.1684    2.0691    0.0020 C.ar      1 <0>         0.1579
      3 N1          2.3299    1.4347   -0.0129 N.ar      1 <0>        -0.5618
      4 C3          2.4134    0.1149   -0.0208 C.ar      1 <0>         0.4781
      5 C4          1.2446   -0.6613   -0.0134 C.ar      1 <0>        -0.0667
      6 C5          0.0021   -0.0041    0.0020 C.ar      1 <0>         0.1258
      7 N2         -0.9528   -0.9923    0.0054 N.pl3     1 <0>        -0.4771
      8 C6         -0.2992   -2.1879   -0.0075 C.2       1 <0>         0.2337
      9 N3          0.9874   -1.9923   -0.0176 N.2       1 <0>        -0.4655
     10 C7         -2.4046   -0.7967    0.0209 C.3       1 <0>         0.1507
     11 C8         -3.0154   -1.4799    1.2570 C.3       1 <0>        -0.1233
     12 C9         -4.0021   -2.5426    0.7308 C.3       1 <0>        -0.0833
     13 C10        -4.3798   -2.0419   -0.6855 C.3       1 <0>         0.0820
     14 C11        -3.0415   -1.4681   -1.2134 C.3       1 <0>         0.0589
     15 O1         -3.2813   -0.5031   -2.2397 O.3       1 <0>        -0.5509
     16 O2         -5.3755   -1.0195   -0.6123 O.3       1 <0>        -0.5441
     17 C12        -5.2428   -2.6099    1.6235 C.3       1 <0>         0.0873
     18 O3         -6.0866   -3.6773    1.1866 O.3       1 <0>        -0.5740
     19 N4          3.6572   -0.5024   -0.0369 N.pl3     1 <0>        -0.8340
     20 H1         -0.9550    1.9235    0.0260 H         1 <0>         0.1290
     21 H2          1.1569    3.1490    0.0079 H         1 <0>         0.1619
     22 H3         -0.7785   -3.1558   -0.0079 H         1 <0>         0.2108
     23 H4         -2.6376    0.2681    0.0285 H         1 <0>         0.1184
     24 H5         -2.2316   -1.9569    1.8454 H         1 <0>         0.0859
     25 H6         -3.5455   -0.7468    1.8650 H         1 <0>         0.0921
     26 H7         -3.5182   -3.5176    0.6743 H         1 <0>         0.0994
     27 H8         -4.7187   -2.8687   -1.3098 H         1 <0>         0.0770
     28 H9         -2.4025   -2.2697   -1.5839 H         1 <0>         0.0789
     29 H10        -3.6812   -0.8708   -3.0397 H         1 <0>         0.3845
     30 H11        -5.6466   -0.6723   -1.4732 H         1 <0>         0.3825
     31 H12        -4.9389   -2.7861    2.6553 H         1 <0>         0.0464
     32 H13        -5.7871   -1.6676    1.5609 H         1 <0>         0.0635
     33 H14        -6.8942   -3.7790    1.7086 H         1 <0>         0.3832
     34 H15         4.4650    0.0345   -0.0424 H         1 <0>         0.4064
     35 H16         3.7181   -1.4705   -0.0427 H         1 <0>         0.4147
@<TRIPOS>BOND
     1    1    6 ar
     2    1    2 ar
     3    1   20 1
     4    2    3 ar
     5    2   21 1
     6    3    4 ar
     7    4    5 ar
     8    4   19 1
     9    5    9 1
    10    5    6 ar
    11    6    7 1
    12    7    8 1
    13    7   10 1
    14    8    9 2
    15    8   22 1
    16   10   14 1
    17   10   11 1
    18   10   23 1
    19   11   12 1
    20   11   24 1
    21   11   25 1
    22   12   13 1
    23   12   17 1
    24   12   26 1
    25   13   14 1
    26   13   16 1
    27   13   27 1
    28   14   15 1
    29   14   28 1
    30   15   29 1
    31   16   30 1
    32   17   18 1
    33   17   31 1
    34   17   32 1
    35   18   33 1
    36   19   34 1
    37   19   35 1
@<TRIPOS>MOLECULE
CHEMBL31577__2
   35    37     0     0     0
SMALL
USER_CHARGES

@<TRIPOS>ATOM
      1 C1         -0.0174    1.3518    0.4250 C.ar      1 <0>        -0.2303
      2 C2          1.1676    2.0196    0.5565 C.ar      1 <0>         0.1527
      3 N1          2.3293    1.3923    0.4624 N.ar      1 <0>        -0.5635
      4 C3          2.4130    0.0917    0.2377 C.ar      1 <0>         0.4758
      5 C4          1.2444   -0.6708    0.0905 C.ar      1 <0>        -0.0615
      6 C5          0.0018   -0.0206    0.1870 C.ar      1 <0>         0.1194
      7 N2         -0.9528   -0.9923    0.0054 N.pl3     1 <0>        -0.4601
      8 C6         -0.2990   -2.1716   -0.1910 C.2       1 <0>         0.2654
      9 N3          0.9875   -1.9817   -0.1399 N.2       1 <0>        -0.4779
     10 C7         -2.4046   -0.7967    0.0209 C.3       1 <0>         0.1479
     11 C8         -3.0521   -1.6317    1.1535 C.3       1 <0>        -0.1292
     12 C9         -3.1401   -3.0459    0.5280 C.3       1 <0>        -0.0930
     13 C10        -3.5060   -2.7848   -0.9477 C.3       1 <0>         0.0777
     14 C11        -3.0384   -1.3547   -1.2702 C.3       1 <0>         0.0534
     15 O1         -2.0687   -1.3817   -2.3194 O.3       1 <0>        -0.5374
     16 O2         -2.8339   -3.7216   -1.7919 O.3       1 <0>        -0.5385
     17 C12        -4.2337   -3.8675    1.2135 C.3       1 <0>         0.0841
     18 O3         -4.2187   -5.2016    0.7017 O.3       1 <0>        -0.5642
     19 N4          3.6569   -0.5189    0.1471 N.pl3     1 <0>        -0.8351
     20 H1         -0.9557    1.8798    0.5089 H         1 <0>         0.1253
     21 H2          1.1559    3.0837    0.7411 H         1 <0>         0.1594
     22 H3         -0.7780   -3.1243   -0.3624 H         1 <0>         0.2129
     23 H4         -2.6450    0.2600    0.1380 H         1 <0>         0.1146
     24 H5         -2.4166   -1.6398    2.0390 H         1 <0>         0.0932
     25 H6         -4.0456   -1.2528    1.3931 H         1 <0>         0.0998
     26 H7         -2.1787   -3.5547    0.5984 H         1 <0>         0.1012
     27 H8         -4.5844   -2.8648   -1.0848 H         1 <0>         0.0707
     28 H9         -3.8898   -0.7407   -1.5637 H         1 <0>         0.0818
     29 H10        -2.4067   -1.7232   -3.1587 H         1 <0>         0.3793
     30 H11        -3.0234   -3.6092   -2.7334 H         1 <0>         0.3748
     31 H12        -4.0525   -3.8886    2.2882 H         1 <0>         0.0524
     32 H13        -5.2054   -3.4141    1.0177 H         1 <0>         0.0484
     33 H14        -4.8876   -5.7804    1.0925 H         1 <0>         0.3811
     34 H15         4.4646    0.0085    0.2486 H         1 <0>         0.4052
     35 H16         3.7181   -1.4728   -0.0177 H         1 <0>         0.4146
@<TRIPOS>BOND
     1    1    6 ar
     2    1    2 ar
     3    1   20 1
     4    2    3 ar
     5    2   21 1
     6    3    4 ar
     7    4    5 ar
     8    4   19 1
     9    5    9 1
    10    5    6 ar
    11    6    7 1
    12    7    8 1
    13    7   10 1
    14    8    9 2
    15    8   22 1
    16   10   14 1
    17   10   11 1
    18   10   23 1
    19   11   12 1
    20   11   24 1
    21   11   25 1
    22   12   13 1
    23   12   17 1
    24   12   26 1
    25   13   14 1
    26   13   16 1
    27   13   27 1
    28   14   15 1
    29   14   28 1
    30   15   29 1
    31   16   30 1
    32   17   18 1
    33   17   31 1
    34   17   32 1
    35   18   33 1
    36   19   34 1
    37   19   35 1
@<TRIPOS>MOLECULE
CHEMBL31577__3
   35    37     0     0     0
SMALL
USER_CHARGES

@<TRIPOS>ATOM
      1 C1         -0.0175    1.3503    0.4332 C.ar      1 <0>        -0.2305
      2 C2          1.1675    2.0177    0.5675 C.ar      1 <0>         0.1582
      3 N1          2.3292    1.3906    0.4718 N.ar      1 <0>        -0.5615
      4 C3          2.4129    0.0908    0.2428 C.ar      1 <0>         0.4785
      5 C4          1.2444   -0.6711    0.0925 C.ar      1 <0>        -0.0649
      6 C5          0.0018   -0.0213    0.1907 C.ar      1 <0>         0.1209
      7 N2         -0.9528   -0.9923    0.0054 N.pl3     1 <0>        -0.4748
      8 C6         -0.2989   -2.1710   -0.1946 C.2       1 <0>         0.2413
      9 N3          0.9875   -1.9813   -0.1424 N.2       1 <0>        -0.4673
     10 C7         -2.4046   -0.7967    0.0209 C.3       1 <0>         0.1461
     11 C8         -3.0521   -1.6317    1.1535 C.3       1 <0>        -0.1234
     12 C9         -3.1401   -3.0459    0.5280 C.3       1 <0>        -0.0925
     13 C10        -3.5060   -2.7848   -0.9477 C.3       1 <0>         0.0790
     14 C11        -3.0384   -1.3547   -1.2702 C.3       1 <0>         0.0577
     15 O1         -4.1546   -0.5498   -1.6550 O.3       1 <0>        -0.5535
     16 O2         -2.8339   -3.7216   -1.7919 O.3       1 <0>        -0.5492
     17 C12        -4.2337   -3.8675    1.2135 C.3       1 <0>         0.0844
     18 O3         -4.2187   -5.2016    0.7017 O.3       1 <0>        -0.5648
     19 N4          3.6568   -0.5195    0.1507 N.pl3     1 <0>        -0.8334
     20 H1         -0.9559    1.8781    0.5185 H         1 <0>         0.1293
     21 H2          1.1558    3.0811    0.7556 H         1 <0>         0.1621
     22 H3         -0.7779   -3.1230   -0.3695 H         1 <0>         0.2180
     23 H4         -2.6450    0.2600    0.1380 H         1 <0>         0.1217
     24 H5         -2.4166   -1.6398    2.0390 H         1 <0>         0.0899
     25 H6         -4.0456   -1.2528    1.3931 H         1 <0>         0.1013
     26 H7         -2.1787   -3.5547    0.5984 H         1 <0>         0.1003
     27 H8         -4.5844   -2.8648   -1.0848 H         1 <0>         0.0767
     28 H9         -2.2987   -1.3753   -2.0705 H         1 <0>         0.0772
     29 H10        -4.5966   -0.8498   -2.4611 H         1 <0>         0.3883
     30 H11        -3.0234   -3.6092   -2.7334 H         1 <0>         0.3797
     31 H12        -4.0525   -3.8886    2.2882 H         1 <0>         0.0528
     32 H13        -5.2054   -3.4141    1.0177 H         1 <0>         0.0495
     33 H14        -4.8876   -5.7804    1.0925 H         1 <0>         0.3813
     34 H15         4.4646    0.0075    0.2544 H         1 <0>         0.4065
     35 H16         3.7180   -1.4729   -0.0172 H         1 <0>         0.4152
@<TRIPOS>BOND
     1    1    6 ar
     2    1    2 ar
     3    1   20 1
     4    2    3 ar
     5    2   21 1
     6    3    4 ar
     7    4    5 ar
     8    4   19 1
     9    5    9 1
    10    5    6 ar
    11    6    7 1
    12    7    8 1
    13    7   10 1
    14    8    9 2
    15    8   22 1
    16   10   14 1
    17   10   11 1
    18   10   23 1
    19   11   12 1
    20   11   24 1
    21   11   25 1
    22   12   13 1
    23   12   17 1
    24   12   26 1
    25   13   14 1
    26   13   16 1
    27   13   27 1
    28   14   15 1
    29   14   28 1
    30   15   29 1
    31   16   30 1
    32   17   18 1
    33   17   31 1
    34   17   32 1
    35   18   33 1
    36   19   34 1
    37   19   35 1
@<TRIPOS>MOLECULE
CHEMBL31577__4
   35    37     0     0     0
SMALL
USER_CHARGES

@<TRIPOS>ATOM
      1 C1         -0.0168    1.3888    0.0097 C.ar      1 <0>        -0.2314
      2 C2          1.1684    2.0691    0.0020 C.ar      1 <0>         0.1542
      3 N1          2.3299    1.4347   -0.0129 N.ar      1 <0>        -0.5625
      4 C3          2.4134    0.1149   -0.0208 C.ar      1 <0>         0.4754
      5 C4          1.2446   -0.6613   -0.0134 C.ar      1 <0>        -0.0608
      6 C5          0.0021   -0.0041    0.0020 C.ar      1 <0>         0.1136
      7 N2         -0.9528   -0.9923    0.0054 N.pl3     1 <0>        -0.4682
      8 C6         -0.2992   -2.1879   -0.0075 C.2       1 <0>         0.2771
      9 N3          0.9874   -1.9923   -0.0176 N.2       1 <0>        -0.4812
     10 C7         -2.4046   -0.7967    0.0209 C.3       1 <0>         0.1502
     11 C8         -3.0377   -1.5310    1.2288 C.3       1 <0>        -0.1249
     12 C9         -4.5025   -1.7416    0.7714 C.3       1 <0>        -0.0827
     13 C10        -4.3864   -2.0652   -0.7324 C.3       1 <0>         0.0833
     14 C11        -3.0525   -1.4644   -1.2097 C.3       1 <0>         0.0562
     15 O1         -2.2018   -2.4975   -1.7107 O.3       1 <0>        -0.5530
     16 O2         -5.4733   -1.4725   -1.4460 O.3       1 <0>        -0.5489
     17 C12        -5.1352   -2.9138    1.5241 C.3       1 <0>         0.0842
     18 O3         -6.5165   -3.0157    1.1724 O.3       1 <0>        -0.5652
     19 N4          3.6572   -0.5024   -0.0369 N.pl3     1 <0>        -0.8349
     20 H1         -0.9550    1.9235    0.0260 H         1 <0>         0.1265
     21 H2          1.1569    3.1490    0.0079 H         1 <0>         0.1603
     22 H3         -0.7785   -3.1558   -0.0079 H         1 <0>         0.2116
     23 H4         -2.6452    0.2660    0.0491 H         1 <0>         0.1198
     24 H5         -2.5452   -2.4881    1.4004 H         1 <0>         0.0878
     25 H6         -2.9979   -0.9090    2.1231 H         1 <0>         0.0908
     26 H7         -5.0837   -0.8319    0.9221 H         1 <0>         0.1028
     27 H8         -4.3848   -3.1447   -0.8830 H         1 <0>         0.0750
     28 H9         -3.2343   -0.7208   -1.9855 H         1 <0>         0.0783
     29 H10        -2.5543   -2.9560   -2.4857 H         1 <0>         0.3854
     30 H11        -5.4567   -1.6402   -2.3982 H         1 <0>         0.3780
     31 H12        -4.6227   -3.8374    1.2551 H         1 <0>         0.0487
     32 H13        -5.0449   -2.7475    2.5975 H         1 <0>         0.0530
     33 H14        -6.9823   -3.7393    1.6134 H         1 <0>         0.3813
     34 H15         4.4650    0.0345   -0.0424 H         1 <0>         0.4056
     35 H16         3.7181   -1.4705   -0.0427 H         1 <0>         0.4146
@<TRIPOS>BOND
     1    1    6 ar
     2    1    2 ar
     3    1   20 1
     4    2    3 ar
     5    2   21 1
     6    3    4 ar
     7    4    5 ar
     8    4   19 1
     9    5    9 1
    10    5    6 ar
    11    6    7 1
    12    7    8 1
    13    7   10 1
    14    8    9 2
    15    8   22 1
    16   10   14 1
    17   10   11 1
    18   10   23 1
    19   11   12 1
    20   11   24 1
    21   11   25 1
    22   12   13 1
    23   12   17 1
    24   12   26 1
    25   13   14 1
    26   13   16 1
    27   13   27 1
    28   14   15 1
    29   14   28 1
    30   15   29 1
    31   16   30 1
    32   17   18 1
    33   17   31 1
    34   17   32 1
    35   18   33 1
    36   19   34 1
    37   19   35 1
@<TRIPOS>MOLECULE
CHEMBL31577__5
   35    37     0     0     0
SMALL
USER_CHARGES

@<TRIPOS>ATOM
      1 C1         -0.0168    1.3888    0.0097 C.ar      1 <0>        -0.2274
      2 C2          1.1684    2.0691    0.0020 C.ar      1 <0>         0.1580
      3 N1          2.3299    1.4347   -0.0129 N.ar      1 <0>        -0.5616
      4 C3          2.4134    0.1149   -0.0208 C.ar      1 <0>         0.4779
      5 C4          1.2446   -0.6613   -0.0134 C.ar      1 <0>        -0.0667
      6 C5          0.0021   -0.0041    0.0020 C.ar      1 <0>         0.1279
      7 N2         -0.9528   -0.9923    0.0054 N.pl3     1 <0>        -0.4734
      8 C6         -0.2992   -2.1879   -0.0075 C.2       1 <0>         0.2330
      9 N3          0.9874   -1.9923   -0.0176 N.2       1 <0>        -0.4652
     10 C7         -2.4046   -0.7967    0.0209 C.3       1 <0>         0.1491
     11 C8         -3.0485   -1.5584    1.2059 C.3       1 <0>        -0.1238
     12 C9         -4.5100   -1.7792    0.7643 C.3       1 <0>        -0.0847
     13 C10        -4.5184   -1.7198   -0.7732 C.3       1 <0>         0.0834
     14 C11        -3.0617   -1.4649   -1.2124 C.3       1 <0>         0.0570
     15 O1         -3.0252   -0.5842   -2.3371 O.3       1 <0>        -0.5455
     16 O2         -5.3575   -0.6517   -1.2173 O.3       1 <0>        -0.5441
     17 C12        -4.9995   -3.1491    1.2385 C.3       1 <0>         0.0822
     18 O3         -6.3864   -3.2938    0.9259 O.3       1 <0>        -0.5688
     19 N4          3.6572   -0.5024   -0.0369 N.pl3     1 <0>        -0.8342
     20 H1         -0.9550    1.9235    0.0260 H         1 <0>         0.1292
     21 H2          1.1569    3.1490    0.0079 H         1 <0>         0.1621
     22 H3         -0.7785   -3.1558   -0.0079 H         1 <0>         0.2101
     23 H4         -2.6495    0.2646    0.0614 H         1 <0>         0.1223
     24 H5         -2.5485   -2.5143    1.3618 H         1 <0>         0.0856
     25 H6         -3.0111   -0.9549    2.1128 H         1 <0>         0.0936
     26 H7         -5.1460   -0.9934    1.1718 H         1 <0>         0.1050
     27 H8         -4.8712   -2.6668   -1.1816 H         1 <0>         0.0728
     28 H9         -2.5638   -2.4057   -1.4470 H         1 <0>         0.0762
     29 H10        -3.4237   -0.9520   -3.1378 H         1 <0>         0.3818
     30 H11        -5.4045   -0.5622   -2.1790 H         1 <0>         0.3784
     31 H12        -4.4304   -3.9318    0.7371 H         1 <0>         0.0493
     32 H13        -4.8595   -3.2318    2.3163 H         1 <0>         0.0559
     33 H14        -6.7648   -4.1409    1.1985 H         1 <0>         0.3836
     34 H15         4.4650    0.0345   -0.0424 H         1 <0>         0.4064
     35 H16         3.7181   -1.4705   -0.0427 H         1 <0>         0.4145
@<TRIPOS>BOND
     1    1    6 ar
     2    1    2 ar
     3    1   20 1
     4    2    3 ar
     5    2   21 1
     6    3    4 ar
     7    4    5 ar
     8    4   19 1
     9    5    9 1
    10    5    6 ar
    11    6    7 1
    12    7    8 1
    13    7   10 1
    14    8    9 2
    15    8   22 1
    16   10   14 1
    17   10   11 1
    18   10   23 1
    19   11   12 1
    20   11   24 1
    21   11   25 1
    22   12   13 1
    23   12   17 1
    24   12   26 1
    25   13   14 1
    26   13   16 1
    27   13   27 1
    28   14   15 1
    29   14   28 1
    30   15   29 1
    31   16   30 1
    32   17   18 1
    33   17   31 1
    34   17   32 1
    35   18   33 1
    36   19   34 1
    37   19   35 1
@<TRIPOS>MOLECULE
CHEMBL31577__6
   35    37     0     0     0
SMALL
USER_CHARGES

@<TRIPOS>ATOM
      1 C1         -0.0168    1.3888    0.0097 C.ar      1 <0>        -0.2311
      2 C2          1.1684    2.0691    0.0020 C.ar      1 <0>         0.1522
      3 N1          2.3299    1.4347   -0.0129 N.ar      1 <0>        -0.5635
      4 C3          2.4134    0.1149   -0.0208 C.ar      1 <0>         0.4747
      5 C4          1.2446   -0.6613   -0.0134 C.ar      1 <0>        -0.0600
      6 C5          0.0021   -0.0041    0.0020 C.ar      1 <0>         0.1149
      7 N2         -0.9528   -0.9923    0.0054 N.pl3     1 <0>        -0.4619
      8 C6         -0.2992   -2.1879   -0.0075 C.2       1 <0>         0.2792
      9 N3          0.9874   -1.9923   -0.0176 N.2       1 <0>        -0.4828
     10 C7         -2.4046   -0.7967    0.0209 C.3       1 <0>         0.1500
     11 C8         -3.0169   -1.4816    1.2602 C.3       1 <0>        -0.1265
     12 C9         -4.3655   -2.0498    0.7527 C.3       1 <0>        -0.0812
     13 C10        -4.0161   -2.5349   -0.6762 C.3       1 <0>         0.0788
     14 C11        -3.0399   -1.4664   -1.2103 C.3       1 <0>         0.0562
     15 O1         -2.0279   -2.0833   -2.0087 O.3       1 <0>        -0.5429
     16 O2         -3.3805   -3.8139   -0.6286 O.3       1 <0>        -0.5443
     17 C12        -4.8239   -3.2197    1.6256 C.3       1 <0>         0.0884
     18 O3         -6.1216   -3.6468    1.2067 O.3       1 <0>        -0.5743
     19 N4          3.6572   -0.5024   -0.0369 N.pl3     1 <0>        -0.8354
     20 H1         -0.9550    1.9235    0.0260 H         1 <0>         0.1249
     21 H2          1.1569    3.1490    0.0079 H         1 <0>         0.1592
     22 H3         -0.7785   -3.1558   -0.0079 H         1 <0>         0.2103
     23 H4         -2.6376    0.2681    0.0285 H         1 <0>         0.1113
     24 H5         -2.3708   -2.2871    1.6092 H         1 <0>         0.0886
     25 H6         -3.1842   -0.7541    2.0544 H         1 <0>         0.0868
     26 H7         -5.1259   -1.2694    0.7205 H         1 <0>         0.1012
     27 H8         -4.9124   -2.5761   -1.2950 H         1 <0>         0.0745
     28 H9         -3.5818   -0.7268   -1.7996 H         1 <0>         0.0795
     29 H10        -2.3657   -2.5233   -2.8008 H         1 <0>         0.3812
     30 H11        -3.1396   -4.1659   -1.4964 H         1 <0>         0.3798
     31 H12        -4.1196   -4.0456    1.5253 H         1 <0>         0.0635
     32 H13        -4.8647   -2.9016    2.6673 H         1 <0>         0.0459
     33 H14        -6.4759   -4.3875    1.7175 H         1 <0>         0.3832
     34 H15         4.4650    0.0345   -0.0424 H         1 <0>         0.4051
     35 H16         3.7181   -1.4705   -0.0427 H         1 <0>         0.4144
@<TRIPOS>BOND
     1    1    6 ar
     2    1    2 ar
     3    1   20 1
     4    2    3 ar
     5    2   21 1
     6    3    4 ar
     7    4    5 ar
     8    4   19 1
     9    5    9 1
    10    5    6 ar
    11    6    7 1
    12    7    8 1
    13    7   10 1
    14    8    9 2
    15    8   22 1
    16   10   14 1
    17   10   11 1
    18   10   23 1
    19   11   12 1
    20   11   24 1
    21   11   25 1
    22   12   13 1
    23   12   17 1
    24   12   26 1
    25   13   14 1
    26   13   16 1
    27   13   27 1
    28   14   15 1
    29   14   28 1
    30   15   29 1
    31   16   30 1
    32   17   18 1
    33   17   31 1
    34   17   32 1
    35   18   33 1
    36   19   34 1
    37   19   35 1
@<TRIPOS>MOLECULE
CHEMBL31577__7
   35    37     0     0     0
SMALL
USER_CHARGES

@<TRIPOS>ATOM
      1 C1         -0.0168    1.3888    0.0097 C.ar      1 <0>        -0.2295
      2 C2          1.1684    2.0691    0.0020 C.ar      1 <0>         0.1581
      3 N1          2.3299    1.4347   -0.0129 N.ar      1 <0>        -0.5615
      4 C3          2.4134    0.1149   -0.0208 C.ar      1 <0>         0.4779
      5 C4          1.2446   -0.6613   -0.0134 C.ar      1 <0>        -0.0657
      6 C5          0.0021   -0.0041    0.0020 C.ar      1 <0>         0.1220
      7 N2         -0.9528   -0.9923    0.0054 N.pl3     1 <0>        -0.4764
      8 C6         -0.2992   -2.1879   -0.0075 C.2       1 <0>         0.2402
      9 N3          0.9874   -1.9923   -0.0176 N.2       1 <0>        -0.4676
     10 C7         -2.4046   -0.7967    0.0209 C.3       1 <0>         0.1483
     11 C8         -3.0169   -1.4816    1.2602 C.3       1 <0>        -0.1229
     12 C9         -4.3655   -2.0498    0.7527 C.3       1 <0>        -0.0778
     13 C10        -4.0161   -2.5349   -0.6762 C.3       1 <0>         0.0808
     14 C11        -3.0399   -1.4664   -1.2103 C.3       1 <0>         0.0602
     15 O1         -3.7504   -0.4968   -1.9829 O.3       1 <0>        -0.5527
     16 O2         -3.3805   -3.8139   -0.6286 O.3       1 <0>        -0.5521
     17 C12        -4.8239   -3.2197    1.6256 C.3       1 <0>         0.0872
     18 O3         -6.1216   -3.6468    1.2067 O.3       1 <0>        -0.5736
     19 N4          3.6572   -0.5024   -0.0369 N.pl3     1 <0>        -0.8338
     20 H1         -0.9550    1.9235    0.0260 H         1 <0>         0.1292
     21 H2          1.1569    3.1490    0.0079 H         1 <0>         0.1621
     22 H3         -0.7785   -3.1558   -0.0079 H         1 <0>         0.2149
     23 H4         -2.6376    0.2681    0.0285 H         1 <0>         0.1186
     24 H5         -2.3708   -2.2871    1.6092 H         1 <0>         0.0883
     25 H6         -3.1842   -0.7541    2.0544 H         1 <0>         0.0883
     26 H7         -5.1259   -1.2694    0.7205 H         1 <0>         0.1031
     27 H8         -4.9124   -2.5761   -1.2950 H         1 <0>         0.0781
     28 H9         -2.2680   -1.9370   -1.8193 H         1 <0>         0.0732
     29 H10        -4.1740   -0.8577   -2.7737 H         1 <0>         0.3876
     30 H11        -3.1396   -4.1659   -1.4964 H         1 <0>         0.3822
     31 H12        -4.1196   -4.0456    1.5253 H         1 <0>         0.0630
     32 H13        -4.8647   -2.9016    2.6673 H         1 <0>         0.0461
     33 H14        -6.4759   -4.3875    1.7175 H         1 <0>         0.3828
     34 H15         4.4650    0.0345   -0.0424 H         1 <0>         0.4064
     35 H16         3.7181   -1.4705   -0.0427 H         1 <0>         0.4148
@<TRIPOS>BOND
     1    1    6 ar
     2    1    2 ar
     3    1   20 1
     4    2    3 ar
     5    2   21 1
     6    3    4 ar
     7    4    5 ar
     8    4   19 1
     9    5    9 1
    10    5    6 ar
    11    6    7 1
    12    7    8 1
    13    7   10 1
    14    8    9 2
    15    8   22 1
    16   10   14 1
    17   10   11 1
    18   10   23 1
    19   11   12 1
    20   11   24 1
    21   11   25 1
    22   12   13 1
    23   12   17 1
    24   12   26 1
    25   13   14 1
    26   13   16 1
    27   13   27 1
    28   14   15 1
    29   14   28 1
    30   15   29 1
    31   16   30 1
    32   17   18 1
    33   17   31 1
    34   17   32 1
    35   18   33 1
    36   19   34 1
    37   19   35 1
@<TRIPOS>MOLECULE
CHEMBL31577__8
   35    37     0     0     0
SMALL
USER_CHARGES

@<TRIPOS>ATOM
      1 C1         -0.0168    1.3888    0.0097 C.ar      1 <0>        -0.2285
      2 C2          1.1684    2.0691    0.0020 C.ar      1 <0>         0.1583
      3 N1          2.3299    1.4347   -0.0129 N.ar      1 <0>        -0.5615
      4 C3          2.4134    0.1149   -0.0208 C.ar      1 <0>         0.4782
      5 C4          1.2446   -0.6613   -0.0134 C.ar      1 <0>        -0.0663
      6 C5          0.0021   -0.0041    0.0020 C.ar      1 <0>         0.1254
      7 N2         -0.9528   -0.9923    0.0054 N.pl3     1 <0>        -0.4751
      8 C6         -0.2992   -2.1879   -0.0075 C.2       1 <0>         0.2362
      9 N3          0.9874   -1.9923   -0.0176 N.2       1 <0>        -0.4655
     10 C7         -2.4046   -0.7967    0.0209 C.3       1 <0>         0.1477
     11 C8         -3.0614   -1.5163   -1.1832 C.3       1 <0>        -0.1234
     12 C9         -4.5169   -1.7326   -0.6997 C.3       1 <0>        -0.0802
     13 C10        -4.3713   -2.0745    0.7975 C.3       1 <0>         0.0825
     14 C11        -3.0283   -1.4794    1.2557 C.3       1 <0>         0.0577
     15 O1         -3.2464   -0.5170    2.2892 O.3       1 <0>        -0.5550
     16 O2         -4.3655   -3.4921    0.9777 O.3       1 <0>        -0.5508
     17 C12        -5.1645   -2.8956   -1.4540 C.3       1 <0>         0.0913
     18 O3         -6.5386   -3.0020   -1.0764 O.3       1 <0>        -0.5710
     19 N4          3.6572   -0.5024   -0.0369 N.pl3     1 <0>        -0.8339
     20 H1         -0.9550    1.9235    0.0260 H         1 <0>         0.1293
     21 H2          1.1569    3.1490    0.0079 H         1 <0>         0.1622
     22 H3         -0.7785   -3.1558   -0.0079 H         1 <0>         0.2119
     23 H4         -2.6455    0.2663    0.0103 H         1 <0>         0.1208
     24 H5         -3.0392   -0.8835   -2.0704 H         1 <0>         0.0911
     25 H6         -2.5725   -2.4712   -1.3762 H         1 <0>         0.0882
     26 H7         -5.1009   -0.8212   -0.8278 H         1 <0>         0.1004
     27 H8         -5.1895   -1.6291    1.3635 H         1 <0>         0.0775
     28 H9         -2.3721   -2.2720    1.6154 H         1 <0>         0.0774
     29 H10        -3.6374   -0.8851    3.0933 H         1 <0>         0.3854
     30 H11        -4.2764   -3.7711    1.8992 H         1 <0>         0.3790
     31 H12        -5.0953   -2.7163   -2.5269 H         1 <0>         0.0450
     32 H13        -4.6469   -3.8224   -1.2064 H         1 <0>         0.0626
     33 H14        -7.0131   -3.7203   -1.5170 H         1 <0>         0.3819
     34 H15         4.4650    0.0345   -0.0424 H         1 <0>         0.4065
     35 H16         3.7181   -1.4705   -0.0427 H         1 <0>         0.4148
@<TRIPOS>BOND
     1    1    6 ar
     2    1    2 ar
     3    1   20 1
     4    2    3 ar
     5    2   21 1
     6    3    4 ar
     7    4    5 ar
     8    4   19 1
     9    5    9 1
    10    5    6 ar
    11    6    7 1
    12    7    8 1
    13    7   10 1
    14    8    9 2
    15    8   22 1
    16   10   14 1
    17   10   11 1
    18   10   23 1
    19   11   12 1
    20   11   24 1
    21   11   25 1
    22   12   13 1
    23   12   17 1
    24   12   26 1
    25   13   14 1
    26   13   16 1
    27   13   27 1
    28   14   15 1
    29   14   28 1
    30   15   29 1
    31   16   30 1
    32   17   18 1
    33   17   31 1
    34   17   32 1
    35   18   33 1
    36   19   34 1
    37   19   35 1
@<TRIPOS>MOLECULE
CHEMBL31577__9
   35    37     0     0     0
SMALL
USER_CHARGES

@<TRIPOS>ATOM
      1 C1         -0.0168    1.3888    0.0097 C.ar      1 <0>        -0.2314
      2 C2          1.1684    2.0691    0.0020 C.ar      1 <0>         0.1533
      3 N1          2.3299    1.4347   -0.0129 N.ar      1 <0>        -0.5629
      4 C3          2.4134    0.1149   -0.0208 C.ar      1 <0>         0.4752
      5 C4          1.2446   -0.6613   -0.0134 C.ar      1 <0>        -0.0604
      6 C5          0.0021   -0.0041    0.0020 C.ar      1 <0>         0.1123
      7 N2         -0.9528   -0.9923    0.0054 N.pl3     1 <0>        -0.4671
      8 C6         -0.2992   -2.1879   -0.0075 C.2       1 <0>         0.2804
      9 N3          0.9874   -1.9923   -0.0176 N.2       1 <0>        -0.4827
     10 C7         -2.4046   -0.7967    0.0209 C.3       1 <0>         0.1481
     11 C8         -3.0614   -1.5163   -1.1832 C.3       1 <0>        -0.1251
     12 C9         -4.5169   -1.7326   -0.6997 C.3       1 <0>        -0.0815
     13 C10        -4.3713   -2.0745    0.7975 C.3       1 <0>         0.0823
     14 C11        -3.0283   -1.4794    1.2557 C.3       1 <0>         0.0567
     15 O1         -2.1680   -2.5184    1.7273 O.3       1 <0>        -0.5415
     16 O2         -4.3655   -3.4921    0.9777 O.3       1 <0>        -0.5393
     17 C12        -5.1645   -2.8956   -1.4540 C.3       1 <0>         0.0923
     18 O3         -6.5386   -3.0020   -1.0764 O.3       1 <0>        -0.5719
     19 N4          3.6572   -0.5024   -0.0369 N.pl3     1 <0>        -0.8350
     20 H1         -0.9550    1.9235    0.0260 H         1 <0>         0.1259
     21 H2          1.1569    3.1490    0.0079 H         1 <0>         0.1599
     22 H3         -0.7785   -3.1558   -0.0079 H         1 <0>         0.2128
     23 H4         -2.6455    0.2663    0.0103 H         1 <0>         0.1179
     24 H5         -3.0392   -0.8835   -2.0704 H         1 <0>         0.0863
     25 H6         -2.5725   -2.4712   -1.3762 H         1 <0>         0.0884
     26 H7         -5.1009   -0.8212   -0.8278 H         1 <0>         0.0982
     27 H8         -5.1895   -1.6291    1.3635 H         1 <0>         0.0717
     28 H9         -3.1947   -0.7453    2.0440 H         1 <0>         0.0734
     29 H10        -2.5052   -2.9863    2.5034 H         1 <0>         0.3808
     30 H11        -4.2764   -3.7711    1.8992 H         1 <0>         0.3742
     31 H12        -5.0953   -2.7163   -2.5269 H         1 <0>         0.0437
     32 H13        -4.6469   -3.8224   -1.2064 H         1 <0>         0.0630
     33 H14        -7.0131   -3.7203   -1.5170 H         1 <0>         0.3817
     34 H15         4.4650    0.0345   -0.0424 H         1 <0>         0.4054
     35 H16         3.7181   -1.4705   -0.0427 H         1 <0>         0.4146
@<TRIPOS>BOND
     1    1    6 ar
     2    1    2 ar
     3    1   20 1
     4    2    3 ar
     5    2   21 1
     6    3    4 ar
     7    4    5 ar
     8    4   19 1
     9    5    9 1
    10    5    6 ar
    11    6    7 1
    12    7    8 1
    13    7   10 1
    14    8    9 2
    15    8   22 1
    16   10   14 1
    17   10   11 1
    18   10   23 1
    19   11   12 1
    20   11   24 1
    21   11   25 1
    22   12   13 1
    23   12   17 1
    24   12   26 1
    25   13   14 1
    26   13   16 1
    27   13   27 1
    28   14   15 1
    29   14   28 1
    30   15   29 1
    31   16   30 1
    32   17   18 1
    33   17   31 1
    34   17   32 1
    35   18   33 1
    36   19   34 1
    37   19   35 1
@<TRIPOS>MOLECULE
CHEMBL31577__10
   35    37     0     0     0
SMALL
USER_CHARGES

@<TRIPOS>ATOM
      1 C1         -0.0168    1.3888    0.0097 C.ar      1 <0>        -0.2283
      2 C2          1.1684    2.0691    0.0020 C.ar      1 <0>         0.1589
      3 N1          2.3299    1.4347   -0.0129 N.ar      1 <0>        -0.5614
      4 C3          2.4134    0.1149   -0.0208 C.ar      1 <0>         0.4782
      5 C4          1.2446   -0.6613   -0.0134 C.ar      1 <0>        -0.0666
      6 C5          0.0021   -0.0041    0.0020 C.ar      1 <0>         0.1268
      7 N2         -0.9528   -0.9923    0.0054 N.pl3     1 <0>        -0.4757
      8 C6         -0.2992   -2.1879   -0.0075 C.2       1 <0>         0.2329
      9 N3          0.9874   -1.9923   -0.0176 N.2       1 <0>        -0.4645
     10 C7         -2.4046   -0.7967    0.0209 C.3       1 <0>         0.1476
     11 C8         -3.0614   -1.5163   -1.1832 C.3       1 <0>        -0.1227
     12 C9         -4.5169   -1.7326   -0.6997 C.3       1 <0>        -0.0831
     13 C10        -4.3713   -2.0745    0.7975 C.3       1 <0>         0.0833
     14 C11        -3.0283   -1.4794    1.2557 C.3       1 <0>         0.0569
     15 O1         -3.2464   -0.5170    2.2892 O.3       1 <0>        -0.5436
     16 O2         -5.4440   -1.4906    1.5396 O.3       1 <0>        -0.5368
     17 C12        -5.1645   -2.8956   -1.4540 C.3       1 <0>         0.0836
     18 O3         -6.5386   -3.0020   -1.0764 O.3       1 <0>        -0.5643
     19 N4          3.6572   -0.5024   -0.0369 N.pl3     1 <0>        -0.8339
     20 H1         -0.9550    1.9235    0.0260 H         1 <0>         0.1297
     21 H2          1.1569    3.1490    0.0079 H         1 <0>         0.1624
     22 H3         -0.7785   -3.1558   -0.0079 H         1 <0>         0.2109
     23 H4         -2.6455    0.2663    0.0103 H         1 <0>         0.1222
     24 H5         -3.0392   -0.8835   -2.0704 H         1 <0>         0.0951
     25 H6         -2.5725   -2.4712   -1.3762 H         1 <0>         0.0872
     26 H7         -5.1009   -0.8212   -0.8278 H         1 <0>         0.1046
     27 H8         -4.3669   -3.1558    0.9349 H         1 <0>         0.0703
     28 H9         -2.3721   -2.2720    1.6154 H         1 <0>         0.0720
     29 H10        -3.6374   -0.8851    3.0933 H         1 <0>         0.3808
     30 H11        -5.4087   -1.6699    2.4891 H         1 <0>         0.3734
     31 H12        -5.0953   -2.7163   -2.5269 H         1 <0>         0.0535
     32 H13        -4.6469   -3.8224   -1.2064 H         1 <0>         0.0481
     33 H14        -7.0131   -3.7203   -1.5170 H         1 <0>         0.3813
     34 H15         4.4650    0.0345   -0.0424 H         1 <0>         0.4065
     35 H16         3.7181   -1.4705   -0.0427 H         1 <0>         0.4147
@<TRIPOS>BOND
     1    1    6 ar
     2    1    2 ar
     3    1   20 1
     4    2    3 ar
     5    2   21 1
     6    3    4 ar
     7    4    5 ar
     8    4   19 1
     9    5    9 1
    10    5    6 ar
    11    6    7 1
    12    7    8 1
    13    7   10 1
    14    8    9 2
    15    8   22 1
    16   10   14 1
    17   10   11 1
    18   10   23 1
    19   11   12 1
    20   11   24 1
    21   11   25 1
    22   12   13 1
    23   12   17 1
    24   12   26 1
    25   13   14 1
    26   13   16 1
    27   13   27 1
    28   14   15 1
    29   14   28 1
    30   15   29 1
    31   16   30 1
    32   17   18 1
    33   17   31 1
    34   17   32 1
    35   18   33 1
    36   19   34 1
    37   19   35 1
@<TRIPOS>MOLECULE
CHEMBL31577__11
   35    37     0     0     0
SMALL
USER_CHARGES

@<TRIPOS>ATOM
      1 C1         -0.0168    1.3888    0.0097 C.ar      1 <0>        -0.2314
      2 C2          1.1684    2.0691    0.0020 C.ar      1 <0>         0.1542
      3 N1          2.3299    1.4347   -0.0129 N.ar      1 <0>        -0.5625
      4 C3          2.4134    0.1149   -0.0208 C.ar      1 <0>         0.4754
      5 C4          1.2446   -0.6613   -0.0134 C.ar      1 <0>        -0.0608
      6 C5          0.0021   -0.0041    0.0020 C.ar      1 <0>         0.1136
      7 N2         -0.9528   -0.9923    0.0054 N.pl3     1 <0>        -0.4682
      8 C6         -0.2992   -2.1879   -0.0075 C.2       1 <0>         0.2771
      9 N3          0.9874   -1.9923   -0.0176 N.2       1 <0>        -0.4812
     10 C7         -2.4046   -0.7967    0.0209 C.3       1 <0>         0.1502
     11 C8         -3.0614   -1.5163   -1.1832 C.3       1 <0>        -0.1248
     12 C9         -4.5169   -1.7326   -0.6997 C.3       1 <0>        -0.0827
     13 C10        -4.3713   -2.0745    0.7975 C.3       1 <0>         0.0833
     14 C11        -3.0283   -1.4794    1.2557 C.3       1 <0>         0.0562
     15 O1         -2.1680   -2.5184    1.7273 O.3       1 <0>        -0.5530
     16 O2         -5.4440   -1.4906    1.5396 O.3       1 <0>        -0.5489
     17 C12        -5.1645   -2.8956   -1.4540 C.3       1 <0>         0.0842
     18 O3         -6.5386   -3.0020   -1.0764 O.3       1 <0>        -0.5652
     19 N4          3.6572   -0.5024   -0.0369 N.pl3     1 <0>        -0.8349
     20 H1         -0.9550    1.9235    0.0260 H         1 <0>         0.1265
     21 H2          1.1569    3.1490    0.0079 H         1 <0>         0.1603
     22 H3         -0.7785   -3.1558   -0.0079 H         1 <0>         0.2117
     23 H4         -2.6455    0.2663    0.0103 H         1 <0>         0.1198
     24 H5         -3.0392   -0.8835   -2.0704 H         1 <0>         0.0908
     25 H6         -2.5725   -2.4712   -1.3762 H         1 <0>         0.0878
     26 H7         -5.1009   -0.8212   -0.8278 H         1 <0>         0.1028
     27 H8         -4.3669   -3.1558    0.9349 H         1 <0>         0.0750
     28 H9         -3.1947   -0.7453    2.0440 H         1 <0>         0.0783
     29 H10        -2.5052   -2.9863    2.5034 H         1 <0>         0.3854
     30 H11        -5.4087   -1.6699    2.4891 H         1 <0>         0.3780
     31 H12        -5.0953   -2.7163   -2.5269 H         1 <0>         0.0530
     32 H13        -4.6469   -3.8224   -1.2064 H         1 <0>         0.0486
     33 H14        -7.0131   -3.7203   -1.5170 H         1 <0>         0.3814
     34 H15         4.4650    0.0345   -0.0424 H         1 <0>         0.4056
     35 H16         3.7181   -1.4705   -0.0427 H         1 <0>         0.4146
@<TRIPOS>BOND
     1    1    6 ar
     2    1    2 ar
     3    1   20 1
     4    2    3 ar
     5    2   21 1
     6    3    4 ar
     7    4    5 ar
     8    4   19 1
     9    5    9 1
    10    5    6 ar
    11    6    7 1
    12    7    8 1
    13    7   10 1
    14    8    9 2
    15    8   22 1
    16   10   14 1
    17   10   11 1
    18   10   23 1
    19   11   12 1
    20   11   24 1
    21   11   25 1
    22   12   13 1
    23   12   17 1
    24   12   26 1
    25   13   14 1
    26   13   16 1
    27   13   27 1
    28   14   15 1
    29   14   28 1
    30   15   29 1
    31   16   30 1
    32   17   18 1
    33   17   31 1
    34   17   32 1
    35   18   33 1
    36   19   34 1
    37   19   35 1
@<TRIPOS>MOLECULE
CHEMBL31577__12
   35    37     0     0     0
SMALL
USER_CHARGES

@<TRIPOS>ATOM
      1 C1         -0.0168    1.3888    0.0097 C.ar      1 <0>        -0.2298
      2 C2          1.1684    2.0691    0.0020 C.ar      1 <0>         0.1588
      3 N1          2.3299    1.4347   -0.0129 N.ar      1 <0>        -0.5615
      4 C3          2.4134    0.1149   -0.0208 C.ar      1 <0>         0.4787
      5 C4          1.2446   -0.6613   -0.0134 C.ar      1 <0>        -0.0657
      6 C5          0.0021   -0.0041    0.0020 C.ar      1 <0>         0.1232
      7 N2         -0.9528   -0.9923    0.0054 N.pl3     1 <0>        -0.4771
      8 C6         -0.2992   -2.1879   -0.0075 C.2       1 <0>         0.2387
      9 N3          0.9874   -1.9923   -0.0176 N.2       1 <0>        -0.4651
     10 C7         -2.4046   -0.7967    0.0209 C.3       1 <0>         0.1467
     11 C8         -3.0413   -1.4665   -1.2144 C.3       1 <0>        -0.1247
     12 C9         -3.4951   -2.8558   -0.7015 C.3       1 <0>        -0.0872
     13 C10        -4.0022   -2.5434    0.7283 C.3       1 <0>         0.0799
     14 C11        -3.0156   -1.4814    1.2560 C.3       1 <0>         0.0563
     15 O1         -3.7107   -0.5214    2.0543 O.3       1 <0>        -0.5564
     16 O2         -3.9568   -3.7169    1.5426 O.3       1 <0>        -0.5430
     17 C12        -4.6266   -3.4110   -1.5690 C.3       1 <0>         0.0856
     18 O3         -4.9442   -4.7383   -1.1453 O.3       1 <0>        -0.5615
     19 N4          3.6572   -0.5024   -0.0369 N.pl3     1 <0>        -0.8334
     20 H1         -0.9550    1.9235    0.0260 H         1 <0>         0.1295
     21 H2          1.1569    3.1490    0.0079 H         1 <0>         0.1623
     22 H3         -0.7785   -3.1558   -0.0079 H         1 <0>         0.2116
     23 H4         -2.6376    0.2681    0.0308 H         1 <0>         0.1212
     24 H5         -3.8983   -0.8896   -1.5619 H         1 <0>         0.0984
     25 H6         -2.3053   -1.5757   -2.0109 H         1 <0>         0.0925
     26 H7         -2.6548   -3.5495   -0.6704 H         1 <0>         0.0983
     27 H8         -5.0144   -2.1404    0.6944 H         1 <0>         0.0787
     28 H9         -2.2319   -1.9593    1.8439 H         1 <0>         0.0803
     29 H10        -4.1187   -0.8919    2.8488 H         1 <0>         0.3862
     30 H11        -4.2635   -3.5786    2.4491 H         1 <0>         0.3766
     31 H12        -5.5071   -2.7766   -1.4672 H         1 <0>         0.0482
     32 H13        -4.3098   -3.4284   -2.6118 H         1 <0>         0.0519
     33 H14        -5.6552   -5.1534   -1.6526 H         1 <0>         0.3801
     34 H15         4.4650    0.0345   -0.0424 H         1 <0>         0.4066
     35 H16         3.7181   -1.4705   -0.0427 H         1 <0>         0.4151
@<TRIPOS>BOND
     1    1    6 ar
     2    1    2 ar
     3    1   20 1
     4    2    3 ar
     5    2   21 1
     6    3    4 ar
     7    4    5 ar
     8    4   19 1
     9    5    9 1
    10    5    6 ar
    11    6    7 1
    12    7    8 1
    13    7   10 1
    14    8    9 2
    15    8   22 1
    16   10   14 1
    17   10   11 1
    18   10   23 1
    19   11   12 1
    20   11   24 1
    21   11   25 1
    22   12   13 1
    23   12   17 1
    24   12   26 1
    25   13   14 1
    26   13   16 1
    27   13   27 1
    28   14   15 1
    29   14   28 1
    30   15   29 1
    31   16   30 1
    32   17   18 1
    33   17   31 1
    34   17   32 1
    35   18   33 1
    36   19   34 1
    37   19   35 1
@<TRIPOS>MOLECULE
CHEMBL31577__13
   35    37     0     0     0
SMALL
USER_CHARGES

@<TRIPOS>ATOM
      1 C1         -0.0168    1.3888    0.0097 C.ar      1 <0>        -0.2313
      2 C2          1.1684    2.0691    0.0020 C.ar      1 <0>         0.1529
      3 N1          2.3299    1.4347   -0.0129 N.ar      1 <0>        -0.5635
      4 C3          2.4134    0.1149   -0.0208 C.ar      1 <0>         0.4755
      5 C4          1.2446   -0.6613   -0.0134 C.ar      1 <0>        -0.0601
      6 C5          0.0021   -0.0041    0.0020 C.ar      1 <0>         0.1162
      7 N2         -0.9528   -0.9923    0.0054 N.pl3     1 <0>        -0.4624
      8 C6         -0.2992   -2.1879   -0.0075 C.2       1 <0>         0.2779
      9 N3          0.9874   -1.9923   -0.0176 N.2       1 <0>        -0.4803
     10 C7         -2.4046   -0.7967    0.0209 C.3       1 <0>         0.1489
     11 C8         -3.0413   -1.4665   -1.2144 C.3       1 <0>        -0.1304
     12 C9         -3.4951   -2.8558   -0.7015 C.3       1 <0>        -0.0846
     13 C10        -4.0022   -2.5434    0.7283 C.3       1 <0>         0.0796
     14 C11        -3.0156   -1.4814    1.2560 C.3       1 <0>         0.0546
     15 O1         -1.9882   -2.1079    2.0268 O.3       1 <0>        -0.5387
     16 O2         -3.9568   -3.7169    1.5426 O.3       1 <0>        -0.5357
     17 C12        -4.6266   -3.4110   -1.5690 C.3       1 <0>         0.0848
     18 O3         -4.9442   -4.7383   -1.1453 O.3       1 <0>        -0.5611
     19 N4          3.6572   -0.5024   -0.0369 N.pl3     1 <0>        -0.8351
     20 H1         -0.9550    1.9235    0.0260 H         1 <0>         0.1252
     21 H2          1.1569    3.1490    0.0079 H         1 <0>         0.1594
     22 H3         -0.7785   -3.1558   -0.0079 H         1 <0>         0.2069
     23 H4         -2.6376    0.2681    0.0308 H         1 <0>         0.1140
     24 H5         -3.8983   -0.8896   -1.5619 H         1 <0>         0.0962
     25 H6         -2.3053   -1.5757   -2.0109 H         1 <0>         0.0922
     26 H7         -2.6548   -3.5495   -0.6704 H         1 <0>         0.0987
     27 H8         -5.0144   -2.1404    0.6944 H         1 <0>         0.0726
     28 H9         -3.5458   -0.7491    1.8649 H         1 <0>         0.0745
     29 H10        -2.3104   -2.5575    2.8200 H         1 <0>         0.3828
     30 H11        -4.2635   -3.5786    2.4491 H         1 <0>         0.3737
     31 H12        -5.5071   -2.7766   -1.4672 H         1 <0>         0.0468
     32 H13        -4.3098   -3.4284   -2.6118 H         1 <0>         0.0505
     33 H14        -5.6552   -5.1534   -1.6526 H         1 <0>         0.3794
     34 H15         4.4650    0.0345   -0.0424 H         1 <0>         0.4053
     35 H16         3.7181   -1.4705   -0.0427 H         1 <0>         0.4147
@<TRIPOS>BOND
     1    1    6 ar
     2    1    2 ar
     3    1   20 1
     4    2    3 ar
     5    2   21 1
     6    3    4 ar
     7    4    5 ar
     8    4   19 1
     9    5    9 1
    10    5    6 ar
    11    6    7 1
    12    7    8 1
    13    7   10 1
    14    8    9 2
    15    8   22 1
    16   10   14 1
    17   10   11 1
    18   10   23 1
    19   11   12 1
    20   11   24 1
    21   11   25 1
    22   12   13 1
    23   12   17 1
    24   12   26 1
    25   13   14 1
    26   13   16 1
    27   13   27 1
    28   14   15 1
    29   14   28 1
    30   15   29 1
    31   16   30 1
    32   17   18 1
    33   17   31 1
    34   17   32 1
    35   18   33 1
    36   19   34 1
    37   19   35 1
@<TRIPOS>MOLECULE
CHEMBL31577__14
   35    37     0     0     0
SMALL
USER_CHARGES

@<TRIPOS>ATOM
      1 C1         -0.0168    1.3888    0.0097 C.ar      1 <0>        -0.2295
      2 C2          1.1684    2.0691    0.0020 C.ar      1 <0>         0.1590
      3 N1          2.3299    1.4347   -0.0129 N.ar      1 <0>        -0.5615
      4 C3          2.4134    0.1149   -0.0208 C.ar      1 <0>         0.4787
      5 C4          1.2446   -0.6613   -0.0134 C.ar      1 <0>        -0.0661
      6 C5          0.0021   -0.0041    0.0020 C.ar      1 <0>         0.1242
      7 N2         -0.9528   -0.9923    0.0054 N.pl3     1 <0>        -0.4769
      8 C6         -0.2992   -2.1879   -0.0075 C.2       1 <0>         0.2345
      9 N3          0.9874   -1.9923   -0.0176 N.2       1 <0>        -0.4648
     10 C7         -2.4046   -0.7967    0.0209 C.3       1 <0>         0.1469
     11 C8         -3.0413   -1.4665   -1.2144 C.3       1 <0>        -0.1216
     12 C9         -3.4951   -2.8558   -0.7015 C.3       1 <0>        -0.0858
     13 C10        -4.0022   -2.5434    0.7283 C.3       1 <0>         0.0795
     14 C11        -3.0156   -1.4814    1.2560 C.3       1 <0>         0.0604
     15 O1         -3.7107   -0.5214    2.0543 O.3       1 <0>        -0.5484
     16 O2         -5.3292   -2.0151    0.6839 O.3       1 <0>        -0.5421
     17 C12        -4.6266   -3.4110   -1.5690 C.3       1 <0>         0.0881
     18 O3         -4.9442   -4.7383   -1.1453 O.3       1 <0>        -0.5741
     19 N4          3.6572   -0.5024   -0.0369 N.pl3     1 <0>        -0.8336
     20 H1         -0.9550    1.9235    0.0260 H         1 <0>         0.1296
     21 H2          1.1569    3.1490    0.0079 H         1 <0>         0.1623
     22 H3         -0.7785   -3.1558   -0.0079 H         1 <0>         0.2102
     23 H4         -2.6376    0.2681    0.0308 H         1 <0>         0.1198
     24 H5         -3.8983   -0.8896   -1.5619 H         1 <0>         0.0989
     25 H6         -2.3053   -1.5757   -2.0109 H         1 <0>         0.0861
     26 H7         -2.6548   -3.5495   -0.6704 H         1 <0>         0.0968
     27 H8         -3.9675   -3.4385    1.3494 H         1 <0>         0.0754
     28 H9         -2.2319   -1.9593    1.8439 H         1 <0>         0.0751
     29 H10        -4.1187   -0.8919    2.8488 H         1 <0>         0.3837
     30 H11        -5.6968   -1.8015    1.5525 H         1 <0>         0.3797
     31 H12        -5.5071   -2.7766   -1.4672 H         1 <0>         0.0643
     32 H13        -4.3098   -3.4284   -2.6118 H         1 <0>         0.0466
     33 H14        -5.6552   -5.1534   -1.6526 H         1 <0>         0.3832
     34 H15         4.4650    0.0345   -0.0424 H         1 <0>         0.4066
     35 H16         3.7181   -1.4705   -0.0427 H         1 <0>         0.4149
@<TRIPOS>BOND
     1    1    6 ar
     2    1    2 ar
     3    1   20 1
     4    2    3 ar
     5    2   21 1
     6    3    4 ar
     7    4    5 ar
     8    4   19 1
     9    5    9 1
    10    5    6 ar
    11    6    7 1
    12    7    8 1
    13    7   10 1
    14    8    9 2
    15    8   22 1
    16   10   14 1
    17   10   11 1
    18   10   23 1
    19   11   12 1
    20   11   24 1
    21   11   25 1
    22   12   13 1
    23   12   17 1
    24   12   26 1
    25   13   14 1
    26   13   16 1
    27   13   27 1
    28   14   15 1
    29   14   28 1
    30   15   29 1
    31   16   30 1
    32   17   18 1
    33   17   31 1
    34   17   32 1
    35   18   33 1
    36   19   34 1
    37   19   35 1
@<TRIPOS>MOLECULE
CHEMBL31577__15
   35    37     0     0     0
SMALL
USER_CHARGES

@<TRIPOS>ATOM
      1 C1         -0.0167    1.3886    0.0272 C.ar      1 <0>        -0.2308
      2 C2          1.1686    2.0689    0.0254 C.ar      1 <0>         0.1549
      3 N1          2.3301    1.4345    0.0071 N.ar      1 <0>        -0.5633
      4 C3          2.4135    0.1148   -0.0099 C.ar      1 <0>         0.4771
      5 C4          1.2446   -0.6614   -0.0090 C.ar      1 <0>        -0.0626
      6 C5          0.0021   -0.0041    0.0098 C.ar      1 <0>         0.1229
      7 N2         -0.9528   -0.9923    0.0054 N.pl3     1 <0>        -0.4598
      8 C6         -0.2993   -2.1879   -0.0152 C.2       1 <0>         0.2564
      9 N3          0.9873   -1.9923   -0.0227 N.2       1 <0>        -0.4734
     10 C7         -2.4046   -0.7967    0.0209 C.3       1 <0>         0.1483
     11 C8         -3.0476   -1.4087   -1.2484 C.3       1 <0>        -0.1280
     12 C9         -3.1375   -2.9139   -0.8943 C.3       1 <0>        -0.0899
     13 C10        -3.5089   -2.9288    0.6029 C.3       1 <0>         0.0774
     14 C11        -3.0429   -1.5826    1.1848 C.3       1 <0>         0.0564
     15 O1         -2.0771   -1.8026    2.2147 O.3       1 <0>        -0.5487
     16 O2         -4.9233   -3.0645    0.7551 O.3       1 <0>        -0.5500
     17 C12        -4.2283   -3.5948   -1.7234 C.3       1 <0>         0.0917
     18 O3         -4.2147   -5.0004   -1.4658 O.3       1 <0>        -0.5710
     19 N4          3.6572   -0.5025   -0.0292 N.pl3     1 <0>        -0.8347
     20 H1         -0.9548    1.9233    0.0463 H         1 <0>         0.1262
     21 H2          1.1572    3.1488    0.0388 H         1 <0>         0.1602
     22 H3         -0.7786   -3.1556   -0.0229 H         1 <0>         0.2057
     23 H4         -2.6450    0.2635    0.0994 H         1 <0>         0.1151
     24 H5         -4.0404   -0.9918   -1.4179 H         1 <0>         0.1005
     25 H6         -2.4089   -1.2539   -2.1180 H         1 <0>         0.0897
     26 H7         -2.1757   -3.4013   -1.0536 H         1 <0>         0.0962
     27 H8         -2.9983   -3.7498    1.1061 H         1 <0>         0.0749
     28 H9         -3.8956   -1.0329    1.5832 H         1 <0>         0.0864
     29 H10        -2.4180   -2.2926    2.9755 H         1 <0>         0.3840
     30 H11        -5.2201   -3.0803    1.6752 H         1 <0>         0.3788
     31 H12        -5.2008   -3.1849   -1.4510 H         1 <0>         0.0630
     32 H13        -4.0431   -3.4178   -2.7829 H         1 <0>         0.0444
     33 H14        -4.8820   -5.4971   -1.9590 H         1 <0>         0.3818
     34 H15         4.4651    0.0344   -0.0301 H         1 <0>         0.4056
     35 H16         3.7181   -1.4705   -0.0417 H         1 <0>         0.4146
@<TRIPOS>BOND
     1    1    6 ar
     2    1    2 ar
     3    1   20 1
     4    2    3 ar
     5    2   21 1
     6    3    4 ar
     7    4    5 ar
     8    4   19 1
     9    5    9 1
    10    5    6 ar
    11    6    7 1
    12    7    8 1
    13    7   10 1
    14    8    9 2
    15    8   22 1
    16   10   14 1
    17   10   11 1
    18   10   23 1
    19   11   12 1
    20   11   24 1
    21   11   25 1
    22   12   13 1
    23   12   17 1
    24   12   26 1
    25   13   14 1
    26   13   16 1
    27   13   27 1
    28   14   15 1
    29   14   28 1
    30   15   29 1
    31   16   30 1
    32   17   18 1
    33   17   31 1
    34   17   32 1
    35   18   33 1
    36   19   34 1
    37   19   35 1
@<TRIPOS>MOLECULE
CHEMBL1095280
   28    29     0     0     0
SMALL
USER_CHARGES

@<TRIPOS>ATOM
      1 C1         -0.0158    1.3119    0.0093 C.ar      1 <0>         0.3560
      2 N1          1.0888    2.0360    0.0026 N.ar      1 <0>        -0.5965
      3 C2          2.2875    1.4625   -0.0119 C.ar      1 <0>         0.5040
      4 C3          2.3582    0.0588   -0.0202 C.ar      1 <0>        -0.1095
      5 C4          1.1547   -0.6659   -0.0126 C.ar      1 <0>         0.2988
      6 N2          0.0021   -0.0041    0.0020 N.ar      1 <0>        -0.5505
      7 N3          1.5110   -1.9908   -0.0227 N.pl3     1 <0>        -0.4575
      8 C5          2.8729   -2.0476   -0.0358 C.2       1 <0>         0.2625
      9 N4          3.3680   -0.8441   -0.0343 N.2       1 <0>        -0.4731
     10 C6          0.5956   -3.1347   -0.0195 C.3       1 <0>         0.0791
     11 C7          0.1648   -3.4471   -1.4540 C.3       1 <0>         0.0849
     12 H1         -0.2595   -2.5521   -1.9090 H         1 <0>         0.0973
     13 C8         -0.8857   -4.5593   -1.4402 C.3       1 <0>         0.0093
     14 H2         -0.4614   -5.4543   -0.9852 H         1 <0>         0.0936
     15 C9         -1.3101   -4.8671   -2.8531 C.2       1 <0>         0.4751
     16 O1         -0.5075   -5.3357   -3.6422 O.co2     1 <0>        -0.6777
     17 O2         -2.4559   -4.6474   -3.2070 O.co2     1 <0>        -0.6878
     18 O3         -2.0209   -4.1330   -0.6841 O.3       1 <0>        -0.5553
     19 O4          1.3000   -3.8734   -2.2101 O.3       1 <0>        -0.5304
     20 N5          3.4393    2.2295   -0.0193 N.pl3     1 <0>        -0.8226
     21 H3         -0.9693    1.8187    0.0257 H         1 <0>         0.2027
     22 H4          3.4551   -2.9572   -0.0459 H         1 <0>         0.2197
     23 H5          1.1000   -4.0024    0.4056 H         1 <0>         0.0988
     24 H6         -0.2829   -2.8953    0.5797 H         1 <0>         0.1112
     25 H7         -2.4500   -3.3395   -1.0324 H         1 <0>         0.3759
     26 H8          1.7291   -4.6669   -1.8618 H         1 <0>         0.3682
     27 H9          3.3774    3.1975   -0.0138 H         1 <0>         0.4072
     28 H10         4.3085    1.7992   -0.0299 H         1 <0>         0.4169
@<TRIPOS>BOND
     1    1    6 ar
     2    1    2 ar
     3    1   21 1
     4    2    3 ar
     5    3    4 ar
     6    3   20 1
     7    4    9 1
     8    4    5 ar
     9    5    6 ar
    10    5    7 1
    11    7    8 1
    12    7   10 1
    13    8    9 2
    14    8   22 1
    15   10   11 1
    16   10   23 1
    17   10   24 1
    18   11   12 1
    19   11   13 1
    20   11   19 1
    21   13   14 1
    22   13   15 1
    23   13   18 1
    24   15   16 2
    25   15   17 1
    26   18   25 1
    27   19   26 1
    28   20   27 1
    29   20   28 1
@<TRIPOS>MOLECULE
CHEMBL45769
   28    30     0     0     0
SMALL
USER_CHARGES

@<TRIPOS>ATOM
      1 C1         -0.0158    1.3119    0.0093 C.ar      1 <0>         0.3541
      2 N1          1.0888    2.0360    0.0026 N.ar      1 <0>        -0.5962
      3 C2          2.2875    1.4625   -0.0119 C.ar      1 <0>         0.5055
      4 C3          2.3582    0.0588   -0.0202 C.ar      1 <0>        -0.1055
      5 C4          1.1547   -0.6659   -0.0126 C.ar      1 <0>         0.3023
      6 N2          0.0021   -0.0041    0.0020 N.ar      1 <0>        -0.5509
      7 N3          1.5110   -1.9908   -0.0227 N.pl3     1 <0>        -0.4665
      8 C5          2.8729   -2.0476   -0.0358 C.2       1 <0>         0.2719
      9 N4          3.3680   -0.8441   -0.0343 N.2       1 <0>        -0.4694
     10 C6          0.5956   -3.1347   -0.0195 C.3       1 <0>         0.2995
     11 H1         -0.2855   -2.9205    0.5853 H         1 <0>         0.1425
     12 C7          0.1888   -3.5174   -1.4676 C.3       1 <0>         0.0446
     13 H2          0.1084   -2.6330   -2.0998 H         1 <0>         0.0564
     14 C8          1.3925   -4.3974   -1.8892 C.3       1 <0>         0.1560
     15 H3          2.0977   -3.8193   -2.4864 H         1 <0>         0.0041
     16 C9          2.0246   -4.8119   -0.5741 C.2       1 <0>        -0.0030
     17 C10         3.1254   -5.5245   -0.4419 C.2       1 <0>        -0.0580
     18 F1          3.5888   -5.8296    0.7900 F         1 <0>        -0.1684
     19 O1          1.2641   -4.3233    0.4536 O.3       1 <0>        -0.2944
     20 O2          0.9448   -5.5435   -2.6159 O.3       1 <0>        -0.8547
     21 O3         -1.0276   -4.2673   -1.4796 O.3       1 <0>        -0.5435
     22 N5          3.4393    2.2295   -0.0193 N.pl3     1 <0>        -0.8218
     23 H4         -0.9693    1.8187    0.0257 H         1 <0>         0.2027
     24 H5          3.4551   -2.9572   -0.0459 H         1 <0>         0.2180
     25 H6          3.6571   -5.8646   -1.3183 H         1 <0>         0.1614
     26 H7         -1.3201   -4.5282   -2.3636 H         1 <0>         0.3883
     27 H8          3.3774    3.1975   -0.0138 H         1 <0>         0.4071
     28 H9          4.3085    1.7992   -0.0299 H         1 <0>         0.4177
@<TRIPOS>BOND
     1    1    6 ar
     2    1    2 ar
     3    1   23 1
     4    2    3 ar
     5    3    4 ar
     6    3   22 1
     7    4    9 1
     8    4    5 ar
     9    5    6 ar
    10    5    7 1
    11    7    8 1
    12    7   10 1
    13    8    9 2
    14    8   24 1
    15   10   11 1
    16   10   19 1
    17   10   12 1
    18   12   13 1
    19   12   14 1
    20   12   21 1
    21   14   15 1
    22   14   16 1
    23   14   20 1
    24   16   17 2
    25   16   19 1
    26   17   18 1
    27   17   25 1
    28   21   26 1
    29   22   27 1
    30   22   28 1
@<TRIPOS>MOLECULE
CHEMBL45769__1
   29    31     0     0     0
SMALL
USER_CHARGES

@<TRIPOS>ATOM
      1 C1         -0.0158    1.3119    0.0093 C.ar      1 <0>         0.3720
      2 N1          1.0888    2.0360    0.0026 N.ar      1 <0>        -0.5900
      3 C2          2.2875    1.4625   -0.0119 C.ar      1 <0>         0.5131
      4 C3          2.3582    0.0588   -0.0202 C.ar      1 <0>        -0.1096
      5 C4          1.1547   -0.6659   -0.0126 C.ar      1 <0>         0.3113
      6 N2          0.0021   -0.0041    0.0020 N.ar      1 <0>        -0.5597
      7 N3          1.5110   -1.9908   -0.0227 N.pl3     1 <0>        -0.4850
      8 C5          2.8729   -2.0476   -0.0358 C.2       1 <0>         0.2514
      9 N4          3.3680   -0.8441   -0.0343 N.2       1 <0>        -0.4492
     10 C6          0.5956   -3.1347   -0.0195 C.3       1 <0>         0.3086
     11 H1         -0.2855   -2.9205    0.5853 H         1 <0>         0.1648
     12 C7          0.1888   -3.5174   -1.4676 C.3       1 <0>         0.0887
     13 H2          0.1084   -2.6330   -2.0998 H         1 <0>         0.0986
     14 C8          1.3925   -4.3974   -1.8892 C.3       1 <0>         0.0919
     15 H3          2.0977   -3.8193   -2.4864 H         1 <0>         0.0954
     16 C9          2.0246   -4.8119   -0.5741 C.2       1 <0>        -0.0582
     17 C10         3.1254   -5.5245   -0.4419 C.2       1 <0>         0.0196
     18 F1          3.5888   -5.8296    0.7900 F         1 <0>        -0.1338
     19 O1          1.2641   -4.3233    0.4536 O.3       1 <0>        -0.2710
     20 O2          0.9448   -5.5435   -2.6159 O.3       1 <0>        -0.5355
     21 O3         -1.0276   -4.2673   -1.4796 O.3       1 <0>        -0.5284
     22 N5          3.4393    2.2295   -0.0193 N.pl3     1 <0>        -0.8144
     23 H4         -0.9693    1.8187    0.0257 H         1 <0>         0.2089
     24 H5          3.4551   -2.9572   -0.0459 H         1 <0>         0.2154
     25 H6          3.6571   -5.8646   -1.3183 H         1 <0>         0.1737
     26 H7          1.6578   -6.1295   -2.9044 H         1 <0>         0.3899
     27 H8         -1.3201   -4.5282   -2.3636 H         1 <0>         0.3990
     28 H9          3.3774    3.1975   -0.0138 H         1 <0>         0.4125
     29 H10         4.3085    1.7992   -0.0299 H         1 <0>         0.4200
@<TRIPOS>BOND
     1    1    6 ar
     2    1    2 ar
     3    1   23 1
     4    2    3 ar
     5    3    4 ar
     6    3   22 1
     7    4    9 1
     8    4    5 ar
     9    5    6 ar
    10    5    7 1
    11    7    8 1
    12    7   10 1
    13    8    9 2
    14    8   24 1
    15   10   11 1
    16   10   19 1
    17   10   12 1
    18   12   13 1
    19   12   14 1
    20   12   21 1
    21   14   15 1
    22   14   16 1
    23   14   20 1
    24   16   17 2
    25   16   19 1
    26   17   18 1
    27   17   25 1
    28   20   26 1
    29   21   27 1
    30   22   28 1
    31   22   29 1
@<TRIPOS>MOLECULE
CHEMBL295620
   31    33     0     0     0
SMALL
USER_CHARGES

@<TRIPOS>ATOM
      1 C1         -0.0158    1.3119    0.0093 C.ar      1 <0>         0.3670
      2 N1          1.0888    2.0360    0.0026 N.ar      1 <0>        -0.5931
      3 C2          2.2875    1.4625   -0.0119 C.ar      1 <0>         0.5100
      4 C3          2.3582    0.0588   -0.0202 C.ar      1 <0>        -0.1141
      5 C4          1.1547   -0.6659   -0.0126 C.ar      1 <0>         0.3119
      6 N2          0.0021   -0.0041    0.0020 N.ar      1 <0>        -0.5572
      7 N3          1.5110   -1.9908   -0.0227 N.pl3     1 <0>        -0.4628
      8 C5          2.8729   -2.0476   -0.0358 C.2       1 <0>         0.2426
      9 N4          3.3680   -0.8441   -0.0343 N.2       1 <0>        -0.4563
     10 C6          0.5956   -3.1347   -0.0195 C.3       1 <0>         0.1493
     11 H1         -0.4412   -2.7992    0.0047 H         1 <0>         0.1317
     12 C7          0.8973   -4.0783    1.1711 C.3       1 <0>        -0.0913
     13 C8          0.3604   -5.4282    0.7296 C.2       1 <0>        -0.2212
     14 C9         -0.0115   -6.4124    1.5152 C.2       1 <0>         0.0623
     15 F1          0.0670   -6.2726    2.8566 F         1 <0>        -0.1412
     16 C10         0.3327   -5.4291   -0.7846 C.3       1 <0>         0.1200
     17 H2          0.9790   -6.2184   -1.1685 H         1 <0>         0.0802
     18 C11         0.8508   -4.0483   -1.2451 C.3       1 <0>         0.1053
     19 H3          1.9160   -4.0966   -1.4716 H         1 <0>         0.0849
     20 O1          0.1157   -3.5840   -2.3792 O.3       1 <0>        -0.5345
     21 O2         -1.0047   -5.6244   -1.2486 O.3       1 <0>        -0.5394
     22 N5          3.4393    2.2295   -0.0193 N.pl3     1 <0>        -0.8175
     23 H4         -0.9693    1.8187    0.0257 H         1 <0>         0.2056
     24 H5          3.4551   -2.9572   -0.0459 H         1 <0>         0.2192
     25 H6          1.9712   -4.1354    1.3490 H         1 <0>         0.0952
     26 H7          0.3796   -3.7374    2.0677 H         1 <0>         0.0932
     27 H8         -0.3802   -7.3337    1.0889 H         1 <0>         0.1542
     28 H9          0.2393   -4.1201   -3.1744 H         1 <0>         0.3855
     29 H10        -1.3955   -6.4667   -0.9786 H         1 <0>         0.3809
     30 H11         3.3774    3.1975   -0.0138 H         1 <0>         0.4109
     31 H12         4.3085    1.7992   -0.0299 H         1 <0>         0.4187
@<TRIPOS>BOND
     1    1    6 ar
     2    1    2 ar
     3    1   23 1
     4    2    3 ar
     5    3    4 ar
     6    3   22 1
     7    4    9 1
     8    4    5 ar
     9    5    6 ar
    10    5    7 1
    11    7    8 1
    12    7   10 1
    13    8    9 2
    14    8   24 1
    15   10   11 1
    16   10   18 1
    17   10   12 1
    18   12   13 1
    19   12   25 1
    20   12   26 1
    21   13   14 2
    22   13   16 1
    23   14   15 1
    24   14   27 1
    25   16   17 1
    26   16   18 1
    27   16   21 1
    28   18   19 1
    29   18   20 1
    30   20   28 1
    31   21   29 1
    32   22   30 1
    33   22   31 1
@<TRIPOS>MOLECULE
CHEMBL49908
   30    31     0     0     0
SMALL
USER_CHARGES

@<TRIPOS>ATOM
      1 C1         -0.8400    1.1144    0.2699 C.ar      1 <0>         0.3650
      2 N1          0.1261    2.0150    0.2806 N.ar      1 <0>        -0.5935
      3 C2          1.4035    1.6548    0.2155 C.ar      1 <0>         0.5092
      4 C3          1.7098    0.2855    0.1342 C.ar      1 <0>        -0.1128
      5 C4          0.6466   -0.6327    0.1262 C.ar      1 <0>         0.3043
      6 N2         -0.6005   -0.1777    0.1951 N.ar      1 <0>        -0.5579
      7 N3          1.2209   -1.8758    0.0420 N.pl3     1 <0>        -0.4667
      8 C5          2.5721   -1.6998    0.0018 C.2       1 <0>         0.2507
      9 N4          2.8568   -0.4311    0.0561 N.2       1 <0>        -0.4620
     10 C6          0.5121   -3.1573    0.0029 C.3       1 <0>         0.1328
     11 C7          0.1090   -3.4654   -1.4161 C.2       1 <0>        -0.1435
     12 C8          0.4307   -4.6161   -1.9533 C.2       1 <0>        -0.1176
     13 C9          1.0516   -5.6962   -1.1054 C.3       1 <0>         0.1055
     14 O1          0.2996   -6.9031   -1.2456 O.3       1 <0>        -0.5653
     15 C10         0.1799   -4.8597   -3.4192 C.3       1 <0>         0.1157
     16 O2         -0.4109   -3.6959   -4.0012 O.3       1 <0>        -0.5727
     17 N5          2.4087    2.6058    0.2269 N.pl3     1 <0>        -0.8179
     18 H1         -1.8646    1.4505    0.3292 H         1 <0>         0.2050
     19 H2          3.2990   -2.4957   -0.0651 H         1 <0>         0.2208
     20 H3          1.1667   -3.9460    0.3740 H         1 <0>         0.1070
     21 H4         -0.3781   -3.0994    0.6291 H         1 <0>         0.1066
     22 H5         -0.4451   -2.7375   -1.9902 H         1 <0>         0.1366
     23 H6          2.0780   -5.8678   -1.4299 H         1 <0>         0.0598
     24 H7          1.0481   -5.3851   -0.0608 H         1 <0>         0.0630
     25 H8          0.6430   -7.6431   -0.7264 H         1 <0>         0.3859
     26 H9          1.1244   -5.0760   -3.9184 H         1 <0>         0.0605
     27 H10        -0.4954   -5.7072   -3.5363 H         1 <0>         0.0663
     28 H11        -0.6004   -3.7814   -4.9456 H         1 <0>         0.3859
     29 H12         2.1845    3.5478    0.2830 H         1 <0>         0.4106
     30 H13         3.3375    2.3303    0.1789 H         1 <0>         0.4187
@<TRIPOS>BOND
     1    1    6 ar
     2    1    2 ar
     3    1   18 1
     4    2    3 ar
     5    3    4 ar
     6    3   17 1
     7    4    9 1
     8    4    5 ar
     9    5    6 ar
    10    5    7 1
    11    7    8 1
    12    7   10 1
    13    8    9 2
    14    8   19 1
    15   10   11 1
    16   10   20 1
    17   10   21 1
    18   11   12 2
    19   11   22 1
    20   12   13 1
    21   12   15 1
    22   13   14 1
    23   13   23 1
    24   13   24 1
    25   14   25 1
    26   15   16 1
    27   15   26 1
    28   15   27 1
    29   16   28 1
    30   17   29 1
    31   17   30 1
@<TRIPOS>MOLECULE
CHEMBL296880
   31    32     0     0     0
SMALL
USER_CHARGES

@<TRIPOS>ATOM
      1 C1         -0.1993    1.5737    0.1026 C.ar      1 <0>        -0.2310
      2 C2          0.8938    2.3935    0.1260 C.ar      1 <0>         0.1585
      3 N1          2.1219    1.9121    0.0162 N.ar      1 <0>        -0.5617
      4 C3          2.3635    0.6191   -0.1213 C.ar      1 <0>         0.4785
      5 C4          1.2983   -0.2934   -0.1546 C.ar      1 <0>        -0.0653
      6 C5         -0.0128    0.2006   -0.0398 C.ar      1 <0>         0.1203
      7 N2         -0.8406   -0.8946   -0.1039 N.pl3     1 <0>        -0.4796
      8 C6         -0.0485   -1.9936   -0.2509 C.2       1 <0>         0.2406
      9 N3          1.2035   -1.6399   -0.2795 N.2       1 <0>        -0.4682
     10 C7         -2.3035   -0.8827   -0.0273 C.3       1 <0>         0.1274
     11 C8         -2.8760   -0.6183   -1.3961 C.2       1 <0>        -0.1532
     12 C9         -3.7770   -1.4269   -1.8966 C.2       1 <0>        -0.1704
     13 C10        -4.3753   -2.5120   -1.0388 C.3       1 <0>         0.1262
     14 H1         -4.0289   -2.3957   -0.0119 H         1 <0>         0.1132
     15 C11        -3.9428   -3.8796   -1.5712 C.3       1 <0>         0.0453
     16 O1         -4.4130   -4.9034   -0.6920 O.3       1 <0>        -0.5638
     17 O2         -5.8006   -2.4158   -1.0746 O.3       1 <0>        -0.5426
     18 N4          3.6710    0.1649   -0.2330 N.pl3     1 <0>        -0.8335
     19 H2         -1.1937    1.9842    0.1976 H         1 <0>         0.1295
     20 H3          0.7524    3.4585    0.2362 H         1 <0>         0.1620
     21 H4         -0.4072   -3.0092   -0.3306 H         1 <0>         0.2126
     22 H5         -2.6563   -1.8488    0.3337 H         1 <0>         0.1091
     23 H6         -2.6251   -0.0990    0.6586 H         1 <0>         0.1044
     24 H7         -2.5435    0.2378   -1.9643 H         1 <0>         0.1253
     25 H8         -4.0909   -1.3160   -2.9240 H         1 <0>         0.1273
     26 H9         -4.3640   -4.0325   -2.5649 H         1 <0>         0.0527
     27 H10        -2.8551   -3.9203   -1.6274 H         1 <0>         0.0549
     28 H11        -4.1748   -5.7989   -0.9682 H         1 <0>         0.3829
     29 H12        -6.1738   -2.4344   -1.9665 H         1 <0>         0.3769
     30 H13         4.4073    0.7960   -0.2102 H         1 <0>         0.4066
     31 H14         3.8481   -0.7835   -0.3338 H         1 <0>         0.4150
@<TRIPOS>BOND
     1    1    6 ar
     2    1    2 ar
     3    1   19 1
     4    2    3 ar
     5    2   20 1
     6    3    4 ar
     7    4    5 ar
     8    4   18 1
     9    5    9 1
    10    5    6 ar
    11    6    7 1
    12    7    8 1
    13    7   10 1
    14    8    9 2
    15    8   21 1
    16   10   11 1
    17   10   22 1
    18   10   23 1
    19   11   12 2
    20   11   24 1
    21   12   13 1
    22   12   25 1
    23   13   14 1
    24   13   15 1
    25   13   17 1
    26   15   16 1
    27   15   26 1
    28   15   27 1
    29   16   28 1
    30   17   29 1
    31   18   30 1
    32   18   31 1
@<TRIPOS>MOLECULE
CHEMBL129469
   31    33     0     0     0
SMALL
USER_CHARGES

@<TRIPOS>ATOM
      1 C1         -0.0164    1.3595    0.0095 C.2       1 <0>         0.2508
      2 N1          1.2004    1.8202    0.0004 N.2       1 <0>        -0.4476
      3 C2          2.0746    0.7848   -0.0135 C.ar      1 <0>        -0.1179
      4 C3          3.4758    0.6755   -0.0279 C.ar      1 <0>         0.5429
      5 N2          4.0170   -0.5380   -0.0400 N.ar      1 <0>        -0.6057
      6 C4          3.2621   -1.6244   -0.0386 C.ar      1 <0>         0.5704
      7 N3          1.9447   -1.5690   -0.0253 N.ar      1 <0>        -0.5742
      8 C5          1.3163   -0.3974   -0.0126 C.ar      1 <0>         0.3356
      9 N4          0.0021   -0.0041    0.0020 N.pl3     1 <0>        -0.4621
     10 C6         -1.1670   -0.8869    0.0089 C.3       1 <0>         0.1419
     11 H1         -0.8478   -1.9289   -0.0120 H         1 <0>         0.1346
     12 C7         -2.0645   -0.5847   -1.2089 C.3       1 <0>        -0.1227
     13 C8         -3.5065   -0.7540   -0.6693 C.3       1 <0>         0.0727
     14 H2         -3.7853   -1.8072   -0.6358 H         1 <0>         0.0866
     15 C9         -3.4076   -0.1667    0.7605 C.3       1 <0>         0.0368
     16 H3         -3.4646    0.9214    0.7308 H         1 <0>         0.0840
     17 C10        -2.0203   -0.6220    1.2617 C.3       1 <0>         0.1060
     18 H4         -1.5645    0.1635    1.8646 H         1 <0>         0.0765
     19 O1         -2.1456   -1.8198    2.0309 O.3       1 <0>        -0.5435
     20 O2         -4.4412   -0.6979    1.5921 O.3       1 <0>        -0.5541
     21 O3         -4.4345   -0.0114   -1.4627 O.3       1 <0>        -0.5553
     22 F1          3.8626   -2.8345   -0.0517 F         1 <0>        -0.0693
     23 N5          4.2737    1.8060   -0.0299 N.pl3     1 <0>        -0.8058
     24 H5         -0.9091    1.9671    0.0254 H         1 <0>         0.2243
     25 H6         -1.9047    0.4359   -1.5567 H         1 <0>         0.0950
     26 H7         -1.8714   -1.2968   -2.0112 H         1 <0>         0.0970
     27 H8         -2.6732   -1.7176    2.8348 H         1 <0>         0.3937
     28 H9         -5.3356   -0.4897    1.2892 H         1 <0>         0.3865
     29 H10        -5.3520   -0.0843   -1.1661 H         1 <0>         0.3834
     30 H11         3.8670    2.6866   -0.0213 H         1 <0>         0.4244
     31 H12         5.2396    1.7179   -0.0399 H         1 <0>         0.4151
@<TRIPOS>BOND
     1    1    9 1
     2    1    2 2
     3    1   24 1
     4    2    3 1
     5    3    8 ar
     6    3    4 ar
     7    4    5 ar
     8    4   23 1
     9    5    6 ar
    10    6    7 ar
    11    6   22 1
    12    7    8 ar
    13    8    9 1
    14    9   10 1
    15   10   11 1
    16   10   17 1
    17   10   12 1
    18   12   13 1
    19   12   25 1
    20   12   26 1
    21   13   14 1
    22   13   15 1
    23   13   21 1
    24   15   16 1
    25   15   17 1
    26   15   20 1
    27   17   18 1
    28   17   19 1
    29   19   27 1
    30   20   28 1
    31   21   29 1
    32   23   30 1
    33   23   31 1
@<TRIPOS>MOLECULE
CHEMBL327105
   35    37     0     0     0
SMALL
USER_CHARGES

@<TRIPOS>ATOM
      1 C1         -0.0187    1.5258    0.0104 C.3       1 <0>        -0.1869
      2 C2          0.0021   -0.0041    0.0020 C.3       1 <0>         0.1491
      3 H1          0.5293   -0.3651    0.8851 H         1 <0>         0.0696
      4 C3          0.7074   -0.4901   -1.2379 C.2       1 <0>        -0.1368
      5 C4          1.8308   -1.1547   -1.2356 C.2       1 <0>        -0.1357
      6 C5          2.2667   -1.4912   -2.6428 C.3       1 <0>         0.1714
      7 H2          3.0615   -0.8185   -2.9651 H         1 <0>         0.1365
      8 C6          1.0013   -1.2827   -3.5067 C.3       1 <0>         0.1056
      9 H3          0.4496   -2.2155   -3.6240 H         1 <0>         0.0890
     10 C7          0.2038   -0.2775   -2.6465 C.3       1 <0>         0.1051
     11 H4         -0.8638   -0.4898   -2.7042 H         1 <0>         0.0812
     12 O1          0.4704    1.0597   -3.0741 O.3       1 <0>        -0.5389
     13 O2          1.3350   -0.7240   -4.7789 O.3       1 <0>        -0.5344
     14 N1          2.7157   -2.8836   -2.7188 N.pl3     1 <0>        -0.4637
     15 C8          1.9762   -3.9873   -2.4137 C.2       1 <0>         0.2485
     16 N2          2.6869   -5.0625   -2.5943 N.2       1 <0>        -0.4576
     17 C9          3.9240   -4.7182   -3.0255 C.ar      1 <0>        -0.1132
     18 C10         3.9557   -3.3162   -3.1159 C.ar      1 <0>         0.3088
     19 N3          5.0704   -2.7204   -3.5264 N.ar      1 <0>        -0.5576
     20 C11         6.1314   -3.4304   -3.8476 C.ar      1 <0>         0.3664
     21 N4          6.1483   -4.7491   -3.7820 N.ar      1 <0>        -0.5929
     22 C12         5.0832   -5.4317   -3.3742 C.ar      1 <0>         0.5096
     23 N5          5.1100   -6.8138   -3.3098 N.pl3     1 <0>        -0.8175
     24 O3         -1.3386   -0.4987    0.0122 O.3       1 <0>        -0.5629
     25 H5          1.0039    1.9031    0.0027 H         1 <0>         0.0739
     26 H6         -0.5459    1.8868   -0.8726 H         1 <0>         0.0637
     27 H7         -0.5289    1.8773    0.9072 H         1 <0>         0.0694
     28 H8          2.3772   -1.4280   -0.3450 H         1 <0>         0.1437
     29 H9          0.0358    1.7377   -2.5389 H         1 <0>         0.3781
     30 H10         0.5729   -0.5754   -5.3553 H         1 <0>         0.3881
     31 H11         0.9518   -3.9718   -2.0720 H         1 <0>         0.2192
     32 H12         7.0213   -2.9150   -4.1775 H         1 <0>         0.2056
     33 H13         4.3226   -7.3013   -3.0213 H         1 <0>         0.4188
     34 H14         5.9163   -7.2951   -3.5531 H         1 <0>         0.4108
     35 H15        -1.8531   -0.2245    0.7836 H         1 <0>         0.3860
@<TRIPOS>BOND
     1    1    2 1
     2    1   25 1
     3    1   26 1
     4    1   27 1
     5    2    3 1
     6    2    4 1
     7    2   24 1
     8    4   10 1
     9    4    5 2
    10    5    6 1
    11    5   28 1
    12    6    7 1
    13    6    8 1
    14    6   14 1
    15    8    9 1
    16    8   10 1
    17    8   13 1
    18   10   11 1
    19   10   12 1
    20   12   29 1
    21   13   30 1
    22   14   18 1
    23   14   15 1
    24   15   16 2
    25   15   31 1
    26   16   17 1
    27   17   22 ar
    28   17   18 ar
    29   18   19 ar
    30   19   20 ar
    31   20   21 ar
    32   20   32 1
    33   21   22 ar
    34   22   23 1
    35   23   33 1
    36   23   34 1
    37   24   35 1
@<TRIPOS>MOLECULE
CHEMBL494759
   26    27     0     0     0
SMALL
USER_CHARGES

@<TRIPOS>ATOM
      1 C1         -0.0158    1.3119    0.0093 C.ar      1 <0>         0.3651
      2 N1          1.0888    2.0360    0.0026 N.ar      1 <0>        -0.5942
      3 C2          2.2875    1.4625   -0.0119 C.ar      1 <0>         0.5092
      4 C3          2.3582    0.0588   -0.0202 C.ar      1 <0>        -0.1157
      5 C4          1.1547   -0.6659   -0.0126 C.ar      1 <0>         0.3153
      6 N2          0.0021   -0.0041    0.0020 N.ar      1 <0>        -0.5543
      7 N3          1.5110   -1.9908   -0.0227 N.pl3     1 <0>        -0.4680
      8 C5          2.8729   -2.0476   -0.0358 C.2       1 <0>         0.2469
      9 N4          3.3680   -0.8441   -0.0343 N.2       1 <0>        -0.4606
     10 C6          0.5956   -3.1347   -0.0195 C.3       1 <0>         0.0824
     11 C7          0.1648   -3.4471   -1.4540 C.3       1 <0>         0.0919
     12 H1          1.0485   -3.5993   -2.0737 H         1 <0>         0.1096
     13 C8         -0.6904   -4.7157   -1.4648 C.3       1 <0>         0.0479
     14 O1         -0.9956   -5.0730   -2.8143 O.3       1 <0>        -0.5613
     15 O2         -0.5973   -2.3545   -1.9711 O.3       1 <0>        -0.5379
     16 N5          3.4393    2.2295   -0.0193 N.pl3     1 <0>        -0.8182
     17 H2         -0.9693    1.8187    0.0257 H         1 <0>         0.2040
     18 H3          3.4551   -2.9572   -0.0459 H         1 <0>         0.2223
     19 H4          1.1000   -4.0024    0.4056 H         1 <0>         0.1099
     20 H5         -0.2829   -2.8953    0.5797 H         1 <0>         0.1021
     21 H6         -0.1411   -5.5283   -0.9892 H         1 <0>         0.0583
     22 H7         -1.6161   -4.5345   -0.9187 H         1 <0>         0.0541
     23 H8         -1.5366   -5.8701   -2.8974 H         1 <0>         0.3838
     24 H9         -1.4001   -2.1617   -1.4677 H         1 <0>         0.3781
     25 H10         3.3774    3.1975   -0.0138 H         1 <0>         0.4106
     26 H11         4.3085    1.7992   -0.0299 H         1 <0>         0.4186
@<TRIPOS>BOND
     1    1    6 ar
     2    1    2 ar
     3    1   17 1
     4    2    3 ar
     5    3    4 ar
     6    3   16 1
     7    4    9 1
     8    4    5 ar
     9    5    6 ar
    10    5    7 1
    11    7    8 1
    12    7   10 1
    13    8    9 2
    14    8   18 1
    15   10   11 1
    16   10   19 1
    17   10   20 1
    18   11   12 1
    19   11   13 1
    20   11   15 1
    21   13   14 1
    22   13   21 1
    23   13   22 1
    24   14   23 1
    25   15   24 1
    26   16   25 1
    27   16   26 1
@<TRIPOS>MOLECULE
CHEMBL300406
   34    36     0     0     0
SMALL
USER_CHARGES

@<TRIPOS>ATOM
      1 C1         -0.0158    1.3119    0.0093 C.ar      1 <0>         0.3703
      2 N1          1.0888    2.0360    0.0026 N.ar      1 <0>        -0.5907
      3 C2          2.2875    1.4625   -0.0119 C.ar      1 <0>         0.5111
      4 C3          2.3582    0.0588   -0.0202 C.ar      1 <0>        -0.1093
      5 C4          1.1547   -0.6659   -0.0126 C.ar      1 <0>         0.3081
      6 N2          0.0021   -0.0041    0.0020 N.ar      1 <0>        -0.5608
      7 N3          1.5110   -1.9908   -0.0227 N.pl3     1 <0>        -0.4863
      8 C5          2.8729   -2.0476   -0.0358 C.2       1 <0>         0.2568
      9 N4          3.3680   -0.8441   -0.0343 N.2       1 <0>        -0.4558
     10 C6          0.5956   -3.1347   -0.0195 C.3       1 <0>         0.3148
     11 C7          0.1978   -3.4834    1.4278 C.3       1 <0>        -0.1842
     12 C8          0.7439   -4.9168    1.6366 C.3       1 <0>        -0.1748
     13 C9          1.8293   -5.0144    0.5345 C.3       1 <0>         0.0826
     14 O1          1.2525   -4.2878   -0.5717 O.3       1 <0>        -0.3302
     15 C10         2.0767   -6.4745    0.1497 C.3       1 <0>         0.0776
     16 O2          3.1595   -6.5451   -0.7801 O.3       1 <0>        -0.5619
     17 C11        -0.3387   -5.9420    1.4174 C.2       1 <0>         0.3374
     18 O3         -0.6510   -6.6910    2.3118 O.2       1 <0>        -0.4295
     19 C12        -1.3011   -3.4622    1.5825 C.2       1 <0>         0.3440
     20 O4         -1.8146   -2.7240    2.3885 O.2       1 <0>        -0.4164
     21 N5          3.4393    2.2295   -0.0193 N.pl3     1 <0>        -0.8156
     22 H1         -0.9693    1.8187    0.0257 H         1 <0>         0.2067
     23 H2          3.4551   -2.9572   -0.0459 H         1 <0>         0.2203
     24 H3         -0.2936   -2.8992   -0.6042 H         1 <0>         0.1443
     25 H4          0.6644   -2.7914    2.1290 H         1 <0>         0.1264
     26 H5          1.1849   -5.0246    2.6276 H         1 <0>         0.1307
     27 H6          2.7544   -4.5412    0.8639 H         1 <0>         0.1012
     28 H7          2.3262   -7.0482    1.0423 H         1 <0>         0.0723
     29 H8          1.1774   -6.8870   -0.3077 H         1 <0>         0.0624
     30 H9          3.3723   -7.4433   -1.0685 H         1 <0>         0.3903
     31 H10        -0.8353   -6.0068    0.4606 H         1 <0>         0.1149
     32 H11        -1.9161   -4.1073    0.9725 H         1 <0>         0.1117
     33 H12         3.3774    3.1975   -0.0138 H         1 <0>         0.4118
     34 H13         4.3085    1.7992   -0.0299 H         1 <0>         0.4196
@<TRIPOS>BOND
     1    1    6 ar
     2    1    2 ar
     3    1   22 1
     4    2    3 ar
     5    3    4 ar
     6    3   21 1
     7    4    9 1
     8    4    5 ar
     9    5    6 ar
    10    5    7 1
    11    7    8 1
    12    7   10 1
    13    8    9 2
    14    8   23 1
    15   10   14 1
    16   10   11 1
    17   10   24 1
    18   11   12 1
    19   11   19 1
    20   11   25 1
    21   12   13 1
    22   12   17 1
    23   12   26 1
    24   13   14 1
    25   13   15 1
    26   13   27 1
    27   15   16 1
    28   15   28 1
    29   15   29 1
    30   16   30 1
    31   17   18 2
    32   17   31 1
    33   19   20 2
    34   19   32 1
    35   21   33 1
    36   21   34 1
@<TRIPOS>MOLECULE
CHEMBL300406__1
   34    36     0     0     0
SMALL
USER_CHARGES

@<TRIPOS>ATOM
      1 C1         -0.0158    1.3119    0.0093 C.ar      1 <0>         0.3710
      2 N1          1.0888    2.0360    0.0026 N.ar      1 <0>        -0.5900
      3 C2          2.2875    1.4625   -0.0119 C.ar      1 <0>         0.5117
      4 C3          2.3582    0.0588   -0.0202 C.ar      1 <0>        -0.1061
      5 C4          1.1547   -0.6659   -0.0126 C.ar      1 <0>         0.3076
      6 N2          0.0021   -0.0041    0.0020 N.ar      1 <0>        -0.5636
      7 N3          1.5110   -1.9908   -0.0227 N.pl3     1 <0>        -0.4743
      8 C5          2.8729   -2.0476   -0.0358 C.2       1 <0>         0.2694
      9 N4          3.3680   -0.8441   -0.0343 N.2       1 <0>        -0.4588
     10 C6          0.5956   -3.1347   -0.0195 C.3       1 <0>         0.3217
     11 C7          0.2584   -3.5598    1.4324 C.3       1 <0>        -0.1888
     12 C8         -0.1295   -5.0477    1.2528 C.3       1 <0>        -0.1766
     13 C9          0.5192   -5.4482   -0.0864 C.3       1 <0>         0.0999
     14 O1          1.2398   -4.3029   -0.5715 O.3       1 <0>        -0.3443
     15 C10         1.4836   -6.6158    0.1312 C.3       1 <0>         0.0767
     16 O2          1.9913   -7.0557   -1.1300 O.3       1 <0>        -0.5636
     17 C11        -1.6272   -5.1972    1.1790 C.2       1 <0>         0.3379
     18 O3         -2.2074   -5.8738    1.9938 O.2       1 <0>        -0.4271
     19 C12        -0.9020   -2.7627    1.9703 C.2       1 <0>         0.3461
     20 O4         -0.7668   -2.0993    2.9703 O.2       1 <0>        -0.4214
     21 N5          3.4393    2.2295   -0.0193 N.pl3     1 <0>        -0.8150
     22 H1         -0.9693    1.8187    0.0257 H         1 <0>         0.2072
     23 H2          3.4551   -2.9572   -0.0459 H         1 <0>         0.2249
     24 H3         -0.3128   -2.8993   -0.5739 H         1 <0>         0.1244
     25 H4          1.1300   -3.4603    2.0792 H         1 <0>         0.1270
     26 H5          0.2751   -5.6484    2.0674 H         1 <0>         0.1283
     27 H6         -0.2527   -5.7308   -0.8023 H         1 <0>         0.1007
     28 H7          2.3107   -6.2911    0.7625 H         1 <0>         0.0615
     29 H8          0.9564   -7.4368    0.6170 H         1 <0>         0.0696
     30 H9          2.6107   -7.7957   -1.0682 H         1 <0>         0.3879
     31 H10        -2.1817   -4.6992    0.3973 H         1 <0>         0.1147
     32 H11        -1.8544   -2.7849    1.4616 H         1 <0>         0.1097
     33 H12         3.3774    3.1975   -0.0138 H         1 <0>         0.4120
     34 H13         4.3085    1.7992   -0.0299 H         1 <0>         0.4199
@<TRIPOS>BOND
     1    1    6 ar
     2    1    2 ar
     3    1   22 1
     4    2    3 ar
     5    3    4 ar
     6    3   21 1
     7    4    9 1
     8    4    5 ar
     9    5    6 ar
    10    5    7 1
    11    7    8 1
    12    7   10 1
    13    8    9 2
    14    8   23 1
    15   10   14 1
    16   10   11 1
    17   10   24 1
    18   11   12 1
    19   11   19 1
    20   11   25 1
    21   12   13 1
    22   12   17 1
    23   12   26 1
    24   13   14 1
    25   13   15 1
    26   13   27 1
    27   15   16 1
    28   15   28 1
    29   15   29 1
    30   16   30 1
    31   17   18 2
    32   17   31 1
    33   19   20 2
    34   19   32 1
    35   21   33 1
    36   21   34 1
@<TRIPOS>MOLECULE
CHEMBL300406__2
   34    36     0     0     0
SMALL
USER_CHARGES

@<TRIPOS>ATOM
      1 C1          0.0296    1.2772    0.5819 C.ar      1 <0>         0.3717
      2 N1          1.1286    2.0056    0.5031 N.ar      1 <0>        -0.5905
      3 C2          2.3092    1.4459    0.2609 C.ar      1 <0>         0.5122
      4 C3          2.3669    0.0522    0.0887 C.ar      1 <0>        -0.1103
      5 C4          1.1701   -0.6777    0.1820 C.ar      1 <0>         0.3097
      6 N2          0.0357   -0.0298    0.4276 N.ar      1 <0>        -0.5603
      7 N3          1.5110   -1.9908   -0.0227 N.pl3     1 <0>        -0.4868
      8 C5          2.8576   -2.0360   -0.2291 C.2       1 <0>         0.2437
      9 N4          3.3579   -0.8364   -0.1633 N.2       1 <0>        -0.4512
     10 C6          0.5956   -3.1347   -0.0195 C.3       1 <0>         0.3151
     11 C7          0.3361   -3.6117    1.4267 C.3       1 <0>        -0.1851
     12 C8          1.3598   -4.7500    1.6359 C.3       1 <0>        -0.1781
     13 C9          2.1167   -4.8259    0.2914 C.3       1 <0>         0.0718
     14 O1          1.2037   -4.2670   -0.6781 O.3       1 <0>        -0.3219
     15 C10         2.4388   -6.2805   -0.0571 C.3       1 <0>         0.0819
     16 O2          3.2379   -6.3209   -1.2411 O.3       1 <0>        -0.5649
     17 C11         2.3075   -4.4084    2.7568 C.2       1 <0>         0.3514
     18 O3          2.3745   -5.1214    3.7291 O.2       1 <0>        -0.4315
     19 C12        -1.0705   -4.1344    1.5659 C.2       1 <0>         0.3571
     20 O4         -1.8234   -3.6354    2.3674 O.2       1 <0>        -0.4266
     21 N5          3.4552    2.2174    0.1797 N.pl3     1 <0>        -0.8150
     22 H1         -0.9086    1.7722    0.7850 H         1 <0>         0.2073
     23 H2          3.4257   -2.9347   -0.4191 H         1 <0>         0.2243
     24 H3         -0.3424   -2.8704   -0.5078 H         1 <0>         0.1499
     25 H4          0.5155   -2.8020    2.1340 H         1 <0>         0.1214
     26 H5          0.8485   -5.6907    1.8400 H         1 <0>         0.1254
     27 H6          3.0310   -4.2343    0.3367 H         1 <0>         0.0960
     28 H7          2.9863   -6.7387    0.7666 H         1 <0>         0.0697
     29 H8          1.5113   -6.8277   -0.2258 H         1 <0>         0.0665
     30 H9          3.4805   -7.2140   -1.5216 H         1 <0>         0.3902
     31 H10         2.9267   -3.5260    2.6904 H         1 <0>         0.1072
     32 H11        -1.4051   -4.9552    0.9489 H         1 <0>         0.1176
     33 H12         3.4024    3.1784    0.3001 H         1 <0>         0.4121
     34 H13         4.3112    1.7971    0.0024 H         1 <0>         0.4199
@<TRIPOS>BOND
     1    1    6 ar
     2    1    2 ar
     3    1   22 1
     4    2    3 ar
     5    3    4 ar
     6    3   21 1
     7    4    9 1
     8    4    5 ar
     9    5    6 ar
    10    5    7 1
    11    7    8 1
    12    7   10 1
    13    8    9 2
    14    8   23 1
    15   10   14 1
    16   10   11 1
    17   10   24 1
    18   11   12 1
    19   11   19 1
    20   11   25 1
    21   12   13 1
    22   12   17 1
    23   12   26 1
    24   13   14 1
    25   13   15 1
    26   13   27 1
    27   15   16 1
    28   15   28 1
    29   15   29 1
    30   16   30 1
    31   17   18 2
    32   17   31 1
    33   19   20 2
    34   19   32 1
    35   21   33 1
    36   21   34 1
@<TRIPOS>MOLECULE
CHEMBL300406__3
   34    36     0     0     0
SMALL
USER_CHARGES

@<TRIPOS>ATOM
      1 C1         -0.0158    1.3119    0.0093 C.ar      1 <0>         0.3711
      2 N1          1.0888    2.0360    0.0026 N.ar      1 <0>        -0.5901
      3 C2          2.2875    1.4625   -0.0119 C.ar      1 <0>         0.5114
      4 C3          2.3582    0.0588   -0.0202 C.ar      1 <0>        -0.1073
      5 C4          1.1547   -0.6659   -0.0126 C.ar      1 <0>         0.3089
      6 N2          0.0021   -0.0041    0.0020 N.ar      1 <0>        -0.5619
      7 N3          1.5110   -1.9908   -0.0227 N.pl3     1 <0>        -0.4748
      8 C5          2.8729   -2.0476   -0.0358 C.2       1 <0>         0.2668
      9 N4          3.3680   -0.8441   -0.0343 N.2       1 <0>        -0.4583
     10 C6          0.5956   -3.1347   -0.0195 C.3       1 <0>         0.3234
     11 C7          0.2375   -3.5328    1.4295 C.3       1 <0>        -0.1922
     12 C8          0.1647   -5.0756    1.3878 C.3       1 <0>        -0.1761
     13 C9          0.4874   -5.4271   -0.0814 C.3       1 <0>         0.0983
     14 O1          1.2452   -4.3000   -0.5726 O.3       1 <0>        -0.3454
     15 C10         1.3267   -6.7044   -0.1516 C.3       1 <0>         0.0735
     16 O2          1.5155   -7.0759   -1.5185 O.3       1 <0>        -0.5605
     17 C11         1.1910   -5.6779    2.3125 C.2       1 <0>         0.3486
     18 O3          0.8398   -6.3883    3.2237 O.2       1 <0>        -0.4348
     19 C12        -1.0962   -2.9517    1.8225 C.2       1 <0>         0.3547
     20 O4         -1.1764   -2.2146    2.7757 O.2       1 <0>        -0.4268
     21 N5          3.4393    2.2295   -0.0193 N.pl3     1 <0>        -0.8153
     22 H1         -0.9693    1.8187    0.0257 H         1 <0>         0.2069
     23 H2          3.4551   -2.9572   -0.0459 H         1 <0>         0.2249
     24 H3         -0.3066   -2.8993   -0.5841 H         1 <0>         0.1225
     25 H4          1.0158   -3.2057    2.1189 H         1 <0>         0.1193
     26 H5         -0.8360   -5.4180    1.6515 H         1 <0>         0.1272
     27 H6         -0.4324   -5.5445   -0.6544 H         1 <0>         0.1069
     28 H7          2.2962   -6.5282    0.3143 H         1 <0>         0.0622
     29 H8          0.8110   -7.5073    0.3752 H         1 <0>         0.0715
     30 H9          2.0402   -7.8792   -1.6389 H         1 <0>         0.3892
     31 H10         2.2406   -5.4741    2.1602 H         1 <0>         0.1098
     32 H11        -1.9803   -3.1944    1.2517 H         1 <0>         0.1146
     33 H12         3.3774    3.1975   -0.0138 H         1 <0>         0.4119
     34 H13         4.3085    1.7992   -0.0299 H         1 <0>         0.4198
@<TRIPOS>BOND
     1    1    6 ar
     2    1    2 ar
     3    1   22 1
     4    2    3 ar
     5    3    4 ar
     6    3   21 1
     7    4    9 1
     8    4    5 ar
     9    5    6 ar
    10    5    7 1
    11    7    8 1
    12    7   10 1
    13    8    9 2
    14    8   23 1
    15   10   14 1
    16   10   11 1
    17   10   24 1
    18   11   12 1
    19   11   19 1
    20   11   25 1
    21   12   13 1
    22   12   17 1
    23   12   26 1
    24   13   14 1
    25   13   15 1
    26   13   27 1
    27   15   16 1
    28   15   28 1
    29   15   29 1
    30   16   30 1
    31   17   18 2
    32   17   31 1
    33   19   20 2
    34   19   32 1
    35   21   33 1
    36   21   34 1
@<TRIPOS>MOLECULE
CHEMBL300406__4
   34    36     0     0     0
SMALL
USER_CHARGES

@<TRIPOS>ATOM
      1 C1          0.0248    1.2809    0.5493 C.ar      1 <0>         0.3735
      2 N1          1.1244    2.0088    0.4746 N.ar      1 <0>        -0.5892
      3 C2          2.3069    1.4477    0.2454 C.ar      1 <0>         0.5121
      4 C3          2.3660    0.0529    0.0825 C.ar      1 <0>        -0.1090
      5 C4          1.1685   -0.6764    0.1709 C.ar      1 <0>         0.3020
      6 N2          0.0322   -0.0271    0.4034 N.ar      1 <0>        -0.5598
      7 N3          1.5110   -1.9908   -0.0227 N.pl3     1 <0>        -0.4938
      8 C5          2.8592   -2.0372   -0.2181 C.2       1 <0>         0.2467
      9 N4          3.3589   -0.8372   -0.1560 N.2       1 <0>        -0.4510
     10 C6          0.5956   -3.1347   -0.0195 C.3       1 <0>         0.3155
     11 C7          0.3361   -3.6117    1.4267 C.3       1 <0>        -0.1813
     12 C8          1.3598   -4.7500    1.6359 C.3       1 <0>        -0.1781
     13 C9          2.1167   -4.8259    0.2914 C.3       1 <0>         0.0721
     14 O1          1.2037   -4.2670   -0.6781 O.3       1 <0>        -0.3229
     15 C10         2.4388   -6.2805   -0.0571 C.3       1 <0>         0.0744
     16 O2          3.2379   -6.3209   -1.2411 O.3       1 <0>        -0.5613
     17 C11         0.6529   -6.0506    1.9181 C.2       1 <0>         0.3499
     18 O3          0.8518   -6.6328    2.9573 O.2       1 <0>        -0.4350
     19 C12         0.5841   -2.4922    2.4045 C.2       1 <0>         0.3553
     20 O4         -0.3014   -2.1247    3.1389 O.2       1 <0>        -0.4215
     21 N5          3.4535    2.2187    0.1684 N.pl3     1 <0>        -0.8145
     22 H1         -0.9149    1.7772    0.7418 H         1 <0>         0.2075
     23 H2          3.4287   -2.9371   -0.3979 H         1 <0>         0.2254
     24 H3         -0.3424   -2.8704   -0.5078 H         1 <0>         0.1552
     25 H4         -0.6812   -3.9898    1.5274 H         1 <0>         0.1353
     26 H5          2.0453   -4.5029    2.4466 H         1 <0>         0.1230
     27 H6          3.0310   -4.2343    0.3367 H         1 <0>         0.1021
     28 H7          2.9863   -6.7387    0.7666 H         1 <0>         0.0710
     29 H8          1.5113   -6.8277   -0.2258 H         1 <0>         0.0646
     30 H9          3.4805   -7.2140   -1.5216 H         1 <0>         0.3905
     31 H10        -0.0315   -6.4621    1.1911 H         1 <0>         0.1140
     32 H11         1.5537   -2.0186    2.4486 H         1 <0>         0.0946
     33 H12         3.3998    3.1805    0.2822 H         1 <0>         0.4124
     34 H13         4.3109    1.7973    0.0006 H         1 <0>         0.4200
@<TRIPOS>BOND
     1    1    6 ar
     2    1    2 ar
     3    1   22 1
     4    2    3 ar
     5    3    4 ar
     6    3   21 1
     7    4    9 1
     8    4    5 ar
     9    5    6 ar
    10    5    7 1
    11    7    8 1
    12    7   10 1
    13    8    9 2
    14    8   23 1
    15   10   14 1
    16   10   11 1
    17   10   24 1
    18   11   12 1
    19   11   19 1
    20   11   25 1
    21   12   13 1
    22   12   17 1
    23   12   26 1
    24   13   14 1
    25   13   15 1
    26   13   27 1
    27   15   16 1
    28   15   28 1
    29   15   29 1
    30   16   30 1
    31   17   18 2
    32   17   31 1
    33   19   20 2
    34   19   32 1
    35   21   33 1
    36   21   34 1
@<TRIPOS>MOLECULE
CHEMBL300406__5
   34    36     0     0     0
SMALL
USER_CHARGES

@<TRIPOS>ATOM
      1 C1         -0.0158    1.3119    0.0093 C.ar      1 <0>         0.3713
      2 N1          1.0888    2.0360    0.0026 N.ar      1 <0>        -0.5900
      3 C2          2.2875    1.4625   -0.0119 C.ar      1 <0>         0.5122
      4 C3          2.3582    0.0588   -0.0202 C.ar      1 <0>        -0.1079
      5 C4          1.1547   -0.6659   -0.0126 C.ar      1 <0>         0.3116
      6 N2          0.0021   -0.0041    0.0020 N.ar      1 <0>        -0.5604
      7 N3          1.5110   -1.9908   -0.0227 N.pl3     1 <0>        -0.4806
      8 C5          2.8729   -2.0476   -0.0358 C.2       1 <0>         0.2579
      9 N4          3.3680   -0.8441   -0.0343 N.2       1 <0>        -0.4537
     10 C6          0.5956   -3.1347   -0.0195 C.3       1 <0>         0.3241
     11 C7          0.2375   -3.5328    1.4295 C.3       1 <0>        -0.1890
     12 C8          0.1647   -5.0756    1.3878 C.3       1 <0>        -0.1786
     13 C9          0.4874   -5.4271   -0.0814 C.3       1 <0>         0.0978
     14 O1          1.2452   -4.3000   -0.5726 O.3       1 <0>        -0.3458
     15 C10         1.3267   -6.7044   -0.1516 C.3       1 <0>         0.0809
     16 O2          1.5155   -7.0759   -1.5185 O.3       1 <0>        -0.5641
     17 C11        -1.2188   -5.5490    1.7523 C.2       1 <0>         0.3521
     18 O3         -1.3781   -6.2697    2.7082 O.2       1 <0>        -0.4344
     19 C12         1.3136   -3.0805    2.3827 C.2       1 <0>         0.3522
     20 O4          1.0405   -2.3331    3.2910 O.2       1 <0>        -0.4294
     21 N5          3.4393    2.2295   -0.0193 N.pl3     1 <0>        -0.8147
     22 H1         -0.9693    1.8187    0.0257 H         1 <0>         0.2077
     23 H2          3.4551   -2.9572   -0.0459 H         1 <0>         0.2263
     24 H3         -0.3066   -2.8993   -0.5841 H         1 <0>         0.1276
     25 H4         -0.7272   -3.1125    1.7138 H         1 <0>         0.1291
     26 H5          0.9070   -5.5112    2.0566 H         1 <0>         0.1215
     27 H6         -0.4324   -5.5445   -0.6544 H         1 <0>         0.1014
     28 H7          2.2962   -6.5282    0.3143 H         1 <0>         0.0639
     29 H8          0.8110   -7.5073    0.3752 H         1 <0>         0.0700
     30 H9          2.0402   -7.8792   -1.6389 H         1 <0>         0.3888
     31 H10        -2.0679   -5.2437    1.1588 H         1 <0>         0.1145
     32 H11         2.3291   -3.4249    2.2534 H         1 <0>         0.1056
     33 H12         3.3774    3.1975   -0.0138 H         1 <0>         0.4122
     34 H13         4.3085    1.7992   -0.0299 H         1 <0>         0.4199
@<TRIPOS>BOND
     1    1    6 ar
     2    1    2 ar
     3    1   22 1
     4    2    3 ar
     5    3    4 ar
     6    3   21 1
     7    4    9 1
     8    4    5 ar
     9    5    6 ar
    10    5    7 1
    11    7    8 1
    12    7   10 1
    13    8    9 2
    14    8   23 1
    15   10   14 1
    16   10   11 1
    17   10   24 1
    18   11   12 1
    19   11   19 1
    20   11   25 1
    21   12   13 1
    22   12   17 1
    23   12   26 1
    24   13   14 1
    25   13   15 1
    26   13   27 1
    27   15   16 1
    28   15   28 1
    29   15   29 1
    30   16   30 1
    31   17   18 2
    32   17   31 1
    33   19   20 2
    34   19   32 1
    35   21   33 1
    36   21   34 1
@<TRIPOS>MOLECULE
CHEMBL300406__6
   34    36     0     0     0
SMALL
USER_CHARGES

@<TRIPOS>ATOM
      1 C1         -0.0158    1.3119    0.0093 C.ar      1 <0>         0.3706
      2 N1          1.0888    2.0360    0.0026 N.ar      1 <0>        -0.5905
      3 C2          2.2875    1.4625   -0.0119 C.ar      1 <0>         0.5116
      4 C3          2.3582    0.0588   -0.0202 C.ar      1 <0>        -0.1092
      5 C4          1.1547   -0.6659   -0.0126 C.ar      1 <0>         0.3103
      6 N2          0.0021   -0.0041    0.0020 N.ar      1 <0>        -0.5602
      7 N3          1.5110   -1.9908   -0.0227 N.pl3     1 <0>        -0.4903
      8 C5          2.8729   -2.0476   -0.0358 C.2       1 <0>         0.2533
      9 N4          3.3680   -0.8441   -0.0343 N.2       1 <0>        -0.4536
     10 C6          0.5956   -3.1347   -0.0195 C.3       1 <0>         0.3258
     11 C7          0.1918   -3.4782    1.4304 C.3       1 <0>        -0.1868
     12 C8          0.1808   -5.0311    1.4103 C.3       1 <0>        -0.1754
     13 C9          1.3366   -5.3206    0.4198 C.3       1 <0>         0.0901
     14 O1          1.2511   -4.2831   -0.5700 O.3       1 <0>        -0.3399
     15 C10         1.1473   -6.6923   -0.2310 C.3       1 <0>         0.0775
     16 O2          2.2792   -6.9911   -1.0505 O.3       1 <0>        -0.5637
     17 C11         0.4815   -5.5941    2.7754 C.2       1 <0>         0.3466
     18 O3         -0.3264   -6.3010    3.3284 O.2       1 <0>        -0.4253
     19 C12         1.2150   -2.9618    2.4088 C.2       1 <0>         0.3395
     20 O4          0.8860   -2.1852    3.2730 O.2       1 <0>        -0.4200
     21 N5          3.4393    2.2295   -0.0193 N.pl3     1 <0>        -0.8152
     22 H1         -0.9693    1.8187    0.0257 H         1 <0>         0.2070
     23 H2          3.4551   -2.9572   -0.0459 H         1 <0>         0.2243
     24 H3         -0.2923   -2.8991   -0.6062 H         1 <0>         0.1389
     25 H4         -0.7989   -3.0862    1.6604 H         1 <0>         0.1378
     26 H5         -0.7670   -5.4124    1.0302 H         1 <0>         0.1331
     27 H6          2.2964   -5.2744    0.9344 H         1 <0>         0.0989
     28 H7          1.0496   -7.4520    0.5445 H         1 <0>         0.0676
     29 H8          0.2468   -6.6820   -0.8450 H         1 <0>         0.0641
     30 H9          2.2274   -7.8480   -1.4955 H         1 <0>         0.3888
     31 H10         1.4196   -5.3654    3.2592 H         1 <0>         0.1075
     32 H11         2.2427   -3.2862    2.3371 H         1 <0>         0.1054
     33 H12         3.3774    3.1975   -0.0138 H         1 <0>         0.4119
     34 H13         4.3085    1.7992   -0.0299 H         1 <0>         0.4198
@<TRIPOS>BOND
     1    1    6 ar
     2    1    2 ar
     3    1   22 1
     4    2    3 ar
     5    3    4 ar
     6    3   21 1
     7    4    9 1
     8    4    5 ar
     9    5    6 ar
    10    5    7 1
    11    7    8 1
    12    7   10 1
    13    8    9 2
    14    8   23 1
    15   10   14 1
    16   10   11 1
    17   10   24 1
    18   11   12 1
    19   11   19 1
    20   11   25 1
    21   12   13 1
    22   12   17 1
    23   12   26 1
    24   13   14 1
    25   13   15 1
    26   13   27 1
    27   15   16 1
    28   15   28 1
    29   15   29 1
    30   16   30 1
    31   17   18 2
    32   17   31 1
    33   19   20 2
    34   19   32 1
    35   21   33 1
    36   21   34 1
@<TRIPOS>MOLECULE
CHEMBL300406__7
   34    36     0     0     0
SMALL
USER_CHARGES

@<TRIPOS>ATOM
      1 C1         -0.0158    1.3119    0.0093 C.ar      1 <0>         0.3711
      2 N1          1.0888    2.0360    0.0026 N.ar      1 <0>        -0.5902
      3 C2          2.2875    1.4625   -0.0119 C.ar      1 <0>         0.5124
      4 C3          2.3582    0.0588   -0.0202 C.ar      1 <0>        -0.1077
      5 C4          1.1547   -0.6659   -0.0126 C.ar      1 <0>         0.3125
      6 N2          0.0021   -0.0041    0.0020 N.ar      1 <0>        -0.5612
      7 N3          1.5110   -1.9908   -0.0227 N.pl3     1 <0>        -0.4785
      8 C5          2.8729   -2.0476   -0.0358 C.2       1 <0>         0.2570
      9 N4          3.3680   -0.8441   -0.0343 N.2       1 <0>        -0.4531
     10 C6          0.5956   -3.1347   -0.0195 C.3       1 <0>         0.3271
     11 C7          0.2584   -3.5598    1.4324 C.3       1 <0>        -0.1899
     12 C8         -0.1295   -5.0477    1.2528 C.3       1 <0>        -0.1727
     13 C9          0.5192   -5.4482   -0.0864 C.3       1 <0>         0.0987
     14 O1          1.2398   -4.3029   -0.5715 O.3       1 <0>        -0.3493
     15 C10         1.4836   -6.6158    0.1312 C.3       1 <0>         0.0669
     16 O2          1.9913   -7.0557   -1.1300 O.3       1 <0>        -0.5583
     17 C11         0.4299   -5.8782    2.3790 C.2       1 <0>         0.3359
     18 O3         -0.3146   -6.5004    3.0979 O.2       1 <0>        -0.4252
     19 C12         1.4635   -3.4223    2.3267 C.2       1 <0>         0.3378
     20 O4          1.4155   -2.7077    3.2990 O.2       1 <0>        -0.4220
     21 N5          3.4393    2.2295   -0.0193 N.pl3     1 <0>        -0.8146
     22 H1         -0.9693    1.8187    0.0257 H         1 <0>         0.2078
     23 H2          3.4551   -2.9572   -0.0459 H         1 <0>         0.2256
     24 H3         -0.3128   -2.8993   -0.5739 H         1 <0>         0.1303
     25 H4         -0.5809   -2.9833    1.8215 H         1 <0>         0.1342
     26 H5         -1.2128   -5.1558    1.1994 H         1 <0>         0.1336
     27 H6         -0.2527   -5.7308   -0.8023 H         1 <0>         0.1071
     28 H7          2.3107   -6.2911    0.7625 H         1 <0>         0.0621
     29 H8          0.9564   -7.4368    0.6170 H         1 <0>         0.0676
     30 H9          2.6107   -7.7957   -1.0682 H         1 <0>         0.3885
     31 H10         1.4967   -5.9170    2.5432 H         1 <0>         0.1066
     32 H11         2.3701   -3.9628    2.0980 H         1 <0>         0.1076
     33 H12         3.3774    3.1975   -0.0138 H         1 <0>         0.4122
     34 H13         4.3085    1.7992   -0.0299 H         1 <0>         0.4200
@<TRIPOS>BOND
     1    1    6 ar
     2    1    2 ar
     3    1   22 1
     4    2    3 ar
     5    3    4 ar
     6    3   21 1
     7    4    9 1
     8    4    5 ar
     9    5    6 ar
    10    5    7 1
    11    7    8 1
    12    7   10 1
    13    8    9 2
    14    8   23 1
    15   10   14 1
    16   10   11 1
    17   10   24 1
    18   11   12 1
    19   11   19 1
    20   11   25 1
    21   12   13 1
    22   12   17 1
    23   12   26 1
    24   13   14 1
    25   13   15 1
    26   13   27 1
    27   15   16 1
    28   15   28 1
    29   15   29 1
    30   16   30 1
    31   17   18 2
    32   17   31 1
    33   19   20 2
    34   19   32 1
    35   21   33 1
    36   21   34 1
@<TRIPOS>MOLECULE
CHEMBL300406__8
   34    36     0     0     0
SMALL
USER_CHARGES

@<TRIPOS>ATOM
      1 C1         -0.0158    1.3119    0.0093 C.ar      1 <0>         0.3717
      2 N1          1.0888    2.0360    0.0026 N.ar      1 <0>        -0.5899
      3 C2          2.2875    1.4625   -0.0119 C.ar      1 <0>         0.5125
      4 C3          2.3582    0.0588   -0.0202 C.ar      1 <0>        -0.1084
      5 C4          1.1547   -0.6659   -0.0126 C.ar      1 <0>         0.3121
      6 N2          0.0021   -0.0041    0.0020 N.ar      1 <0>        -0.5604
      7 N3          1.5110   -1.9908   -0.0227 N.pl3     1 <0>        -0.4810
      8 C5          2.8729   -2.0476   -0.0358 C.2       1 <0>         0.2557
      9 N4          3.3680   -0.8441   -0.0343 N.2       1 <0>        -0.4527
     10 C6          0.5956   -3.1347   -0.0195 C.3       1 <0>         0.3244
     11 C7          0.2093   -3.5183   -1.4652 C.3       1 <0>        -0.1865
     12 C8          0.1372   -5.0615   -1.4375 C.3       1 <0>        -0.1736
     13 C9          0.4884   -5.4276    0.0216 C.3       1 <0>         0.0986
     14 O1          1.2558   -4.3054    0.5091 O.3       1 <0>        -0.3483
     15 C10         1.3288   -6.7055    0.0625 C.3       1 <0>         0.0734
     16 O2          1.5442   -7.0906    1.4217 O.3       1 <0>        -0.5601
     17 C11         1.1452   -5.6543   -2.3880 C.2       1 <0>         0.3330
     18 O3          0.7762   -6.3556   -3.2993 O.2       1 <0>        -0.4271
     19 C12         1.2667   -3.0564   -2.4345 C.2       1 <0>         0.3373
     20 O4          0.9760   -2.3000   -3.3299 O.2       1 <0>        -0.4213
     21 N5          3.4393    2.2295   -0.0193 N.pl3     1 <0>        -0.8145
     22 H1         -0.9693    1.8187    0.0257 H         1 <0>         0.2078
     23 H2          3.4551   -2.9572   -0.0459 H         1 <0>         0.2267
     24 H3         -0.2954   -2.9051    0.5649 H         1 <0>         0.1282
     25 H4         -0.7607   -3.0952   -1.7264 H         1 <0>         0.1346
     26 H5         -0.8685   -5.4013   -1.6851 H         1 <0>         0.1320
     27 H6         -0.4201   -5.5508    0.6111 H         1 <0>         0.1071
     28 H7          0.8029   -7.5031   -0.4622 H         1 <0>         0.0715
     29 H8          2.2891   -6.5245   -0.4204 H         1 <0>         0.0622
     30 H9          2.0710   -7.8950    1.5238 H         1 <0>         0.3892
     31 H10         2.1976   -5.4520   -2.2542 H         1 <0>         0.1092
     32 H11         2.2844   -3.4019   -2.3285 H         1 <0>         0.1043
     33 H12         3.3774    3.1975   -0.0138 H         1 <0>         0.4123
     34 H13         4.3085    1.7992   -0.0299 H         1 <0>         0.4200
@<TRIPOS>BOND
     1    1    6 ar
     2    1    2 ar
     3    1   22 1
     4    2    3 ar
     5    3    4 ar
     6    3   21 1
     7    4    9 1
     8    4    5 ar
     9    5    6 ar
    10    5    7 1
    11    7    8 1
    12    7   10 1
    13    8    9 2
    14    8   23 1
    15   10   14 1
    16   10   11 1
    17   10   24 1
    18   11   12 1
    19   11   19 1
    20   11   25 1
    21   12   13 1
    22   12   17 1
    23   12   26 1
    24   13   14 1
    25   13   15 1
    26   13   27 1
    27   15   16 1
    28   15   28 1
    29   15   29 1
    30   16   30 1
    31   17   18 2
    32   17   31 1
    33   19   20 2
    34   19   32 1
    35   21   33 1
    36   21   34 1
@<TRIPOS>MOLECULE
CHEMBL300406__9
   34    36     0     0     0
SMALL
USER_CHARGES

@<TRIPOS>ATOM
      1 C1         -0.0158    1.3119    0.0093 C.ar      1 <0>         0.3704
      2 N1          1.0888    2.0360    0.0026 N.ar      1 <0>        -0.5904
      3 C2          2.2875    1.4625   -0.0119 C.ar      1 <0>         0.5120
      4 C3          2.3582    0.0588   -0.0202 C.ar      1 <0>        -0.1078
      5 C4          1.1547   -0.6659   -0.0126 C.ar      1 <0>         0.3118
      6 N2          0.0021   -0.0041    0.0020 N.ar      1 <0>        -0.5614
      7 N3          1.5110   -1.9908   -0.0227 N.pl3     1 <0>        -0.4815
      8 C5          2.8729   -2.0476   -0.0358 C.2       1 <0>         0.2567
      9 N4          3.3680   -0.8441   -0.0343 N.2       1 <0>        -0.4539
     10 C6          0.5956   -3.1347   -0.0195 C.3       1 <0>         0.3294
     11 C7          0.2026   -3.5130   -1.4698 C.3       1 <0>        -0.1909
     12 C8         -0.1697   -5.0104   -1.2932 C.3       1 <0>        -0.1746
     13 C9          0.8185   -5.4668   -0.1985 C.3       1 <0>         0.0978
     14 O1          1.2535   -4.2982    0.5065 O.3       1 <0>        -0.3486
     15 C10         0.1174   -6.4245    0.7671 C.3       1 <0>         0.0659
     16 O2          1.0664   -6.9325    1.7070 O.3       1 <0>        -0.5624
     17 C11         0.0570   -5.7738   -2.5726 C.2       1 <0>         0.3471
     18 O3         -0.8653   -6.3377   -3.1108 O.2       1 <0>        -0.4261
     19 C12         1.3700   -3.3506   -2.4088 C.2       1 <0>         0.3396
     20 O4          1.2841   -2.6065   -3.3560 O.2       1 <0>        -0.4217
     21 N5          3.4393    2.2295   -0.0193 N.pl3     1 <0>        -0.8148
     22 H1         -0.9693    1.8187    0.0257 H         1 <0>         0.2073
     23 H2          3.4551   -2.9572   -0.0459 H         1 <0>         0.2257
     24 H3         -0.2937   -2.9051    0.5675 H         1 <0>         0.1294
     25 H4         -0.6554   -2.9321   -1.8085 H         1 <0>         0.1357
     26 H5         -1.2002   -5.1165   -0.9543 H         1 <0>         0.1312
     27 H6          1.6745   -5.9625   -0.6564 H         1 <0>         0.1104
     28 H7         -0.6711   -5.8918    1.2986 H         1 <0>         0.0594
     29 H8         -0.3173   -7.2520    0.2064 H         1 <0>         0.0659
     30 H9          0.6908   -7.5478    2.3516 H         1 <0>         0.3872
     31 H10         1.0444   -5.8167   -3.0081 H         1 <0>         0.1089
     32 H11         2.2835   -3.8998   -2.2347 H         1 <0>         0.1101
     33 H12         3.3774    3.1975   -0.0138 H         1 <0>         0.4120
     34 H13         4.3085    1.7992   -0.0299 H         1 <0>         0.4199
@<TRIPOS>BOND
     1    1    6 ar
     2    1    2 ar
     3    1   22 1
     4    2    3 ar
     5    3    4 ar
     6    3   21 1
     7    4    9 1
     8    4    5 ar
     9    5    6 ar
    10    5    7 1
    11    7    8 1
    12    7   10 1
    13    8    9 2
    14    8   23 1
    15   10   14 1
    16   10   11 1
    17   10   24 1
    18   11   12 1
    19   11   19 1
    20   11   25 1
    21   12   13 1
    22   12   17 1
    23   12   26 1
    24   13   14 1
    25   13   15 1
    26   13   27 1
    27   15   16 1
    28   15   28 1
    29   15   29 1
    30   16   30 1
    31   17   18 2
    32   17   31 1
    33   19   20 2
    34   19   32 1
    35   21   33 1
    36   21   34 1
@<TRIPOS>MOLECULE
CHEMBL300406__10
   34    36     0     0     0
SMALL
USER_CHARGES

@<TRIPOS>ATOM
      1 C1         -0.0158    1.3119    0.0093 C.ar      1 <0>         0.3713
      2 N1          1.0888    2.0360    0.0026 N.ar      1 <0>        -0.5900
      3 C2          2.2875    1.4625   -0.0119 C.ar      1 <0>         0.5122
      4 C3          2.3582    0.0588   -0.0202 C.ar      1 <0>        -0.1079
      5 C4          1.1547   -0.6659   -0.0126 C.ar      1 <0>         0.3116
      6 N2          0.0021   -0.0041    0.0020 N.ar      1 <0>        -0.5604
      7 N3          1.5110   -1.9908   -0.0227 N.pl3     1 <0>        -0.4807
      8 C5          2.8729   -2.0476   -0.0358 C.2       1 <0>         0.2579
      9 N4          3.3680   -0.8441   -0.0343 N.2       1 <0>        -0.4538
     10 C6          0.5956   -3.1347   -0.0195 C.3       1 <0>         0.3241
     11 C7          0.2093   -3.5183   -1.4652 C.3       1 <0>        -0.1890
     12 C8          0.1372   -5.0615   -1.4375 C.3       1 <0>        -0.1787
     13 C9          0.4884   -5.4276    0.0216 C.3       1 <0>         0.0978
     14 O1          1.2558   -4.3054    0.5091 O.3       1 <0>        -0.3458
     15 C10         1.3288   -6.7055    0.0625 C.3       1 <0>         0.0809
     16 O2          1.5442   -7.0906    1.4217 O.3       1 <0>        -0.5641
     17 C11        -1.2532   -5.5313   -1.7798 C.2       1 <0>         0.3522
     18 O3         -1.4312   -6.2424   -2.7395 O.2       1 <0>        -0.4344
     19 C12         1.2667   -3.0564   -2.4345 C.2       1 <0>         0.3522
     20 O4          0.9760   -2.3000   -3.3299 O.2       1 <0>        -0.4294
     21 N5          3.4393    2.2295   -0.0193 N.pl3     1 <0>        -0.8147
     22 H1         -0.9693    1.8187    0.0257 H         1 <0>         0.2077
     23 H2          3.4551   -2.9572   -0.0459 H         1 <0>         0.2263
     24 H3         -0.2954   -2.9051    0.5649 H         1 <0>         0.1276
     25 H4         -0.7607   -3.0952   -1.7264 H         1 <0>         0.1291
     26 H5          0.8663   -5.4903   -2.1250 H         1 <0>         0.1215
     27 H6         -0.4201   -5.5508    0.6111 H         1 <0>         0.1014
     28 H7          0.8029   -7.5031   -0.4622 H         1 <0>         0.0701
     29 H8          2.2891   -6.5245   -0.4204 H         1 <0>         0.0639
     30 H9          2.0710   -7.8950    1.5238 H         1 <0>         0.3888
     31 H10        -2.0905   -5.2321   -1.1668 H         1 <0>         0.1144
     32 H11         2.2844   -3.4019   -2.3285 H         1 <0>         0.1056
     33 H12         3.3774    3.1975   -0.0138 H         1 <0>         0.4122
     34 H13         4.3085    1.7992   -0.0299 H         1 <0>         0.4199
@<TRIPOS>BOND
     1    1    6 ar
     2    1    2 ar
     3    1   22 1
     4    2    3 ar
     5    3    4 ar
     6    3   21 1
     7    4    9 1
     8    4    5 ar
     9    5    6 ar
    10    5    7 1
    11    7    8 1
    12    7   10 1
    13    8    9 2
    14    8   23 1
    15   10   14 1
    16   10   11 1
    17   10   24 1
    18   11   12 1
    19   11   19 1
    20   11   25 1
    21   12   13 1
    22   12   17 1
    23   12   26 1
    24   13   14 1
    25   13   15 1
    26   13   27 1
    27   15   16 1
    28   15   28 1
    29   15   29 1
    30   16   30 1
    31   17   18 2
    32   17   31 1
    33   19   20 2
    34   19   32 1
    35   21   33 1
    36   21   34 1
@<TRIPOS>MOLECULE
CHEMBL300406__11
   34    36     0     0     0
SMALL
USER_CHARGES

@<TRIPOS>ATOM
      1 C1         -0.0154    1.3117    0.0367 C.ar      1 <0>         0.3735
      2 N1          1.0892    2.0358    0.0266 N.ar      1 <0>        -0.5891
      3 C2          2.2876    1.4624    0.0011 C.ar      1 <0>         0.5121
      4 C3          2.3583    0.0588   -0.0150 C.ar      1 <0>        -0.1090
      5 C4          1.1548   -0.6660   -0.0033 C.ar      1 <0>         0.3020
      6 N2          0.0023   -0.0042    0.0224 N.ar      1 <0>        -0.5598
      7 N3          1.5110   -1.9908   -0.0227 N.pl3     1 <0>        -0.4937
      8 C5          2.8728   -2.0476   -0.0450 C.2       1 <0>         0.2467
      9 N4          3.3679   -0.8440   -0.0405 N.2       1 <0>        -0.4510
     10 C6          0.5956   -3.1347   -0.0195 C.3       1 <0>         0.3155
     11 C7          0.1111   -3.4397   -1.4543 C.3       1 <0>        -0.1814
     12 C8          1.0795   -4.5356   -1.9526 C.3       1 <0>        -0.1781
     13 C9          2.0346   -4.7631   -0.7599 C.3       1 <0>         0.0721
     14 O1          1.2878   -4.3313    0.3984 O.3       1 <0>        -0.3229
     15 C10         2.3933   -6.2457   -0.6401 C.3       1 <0>         0.0745
     16 O2          3.3655   -6.4185    0.3928 O.3       1 <0>        -0.5613
     17 C11         0.3254   -5.8002   -2.2739 C.2       1 <0>         0.3499
     18 O3          0.3557   -6.2535   -3.3928 O.2       1 <0>        -0.4349
     19 C12         0.2150   -2.2100   -2.3193 C.2       1 <0>         0.3553
     20 O4         -0.7699   -1.7664   -2.8591 O.2       1 <0>        -0.4215
     21 N5          3.4394    2.2294   -0.0097 N.pl3     1 <0>        -0.8145
     22 H1         -0.9688    1.8184    0.0621 H         1 <0>         0.2075
     23 H2          3.4549   -2.9571   -0.0638 H         1 <0>         0.2254
     24 H3         -0.2531   -2.9387    0.6358 H         1 <0>         0.1552
     25 H4         -0.9131   -3.8125   -1.4404 H         1 <0>         0.1353
     26 H5          1.6334   -4.1881   -2.8246 H         1 <0>         0.1230
     27 H6          2.9363   -4.1618   -0.8759 H         1 <0>         0.1021
     28 H7          1.4981   -6.8175   -0.3958 H         1 <0>         0.0646
     29 H8          2.8025   -6.5981   -1.5869 H         1 <0>         0.0710
     30 H9          3.6403   -7.3362    0.5247 H         1 <0>         0.3905
     31 H10        -0.2420   -6.3011   -1.5035 H         1 <0>         0.1140
     32 H11         1.1705   -1.7256   -2.4565 H         1 <0>         0.0946
     33 H12         3.3776    3.1974    0.0013 H         1 <0>         0.4124
     34 H13         4.3085    1.7991   -0.0284 H         1 <0>         0.4200
@<TRIPOS>BOND
     1    1    6 ar
     2    1    2 ar
     3    1   22 1
     4    2    3 ar
     5    3    4 ar
     6    3   21 1
     7    4    9 1
     8    4    5 ar
     9    5    6 ar
    10    5    7 1
    11    7    8 1
    12    7   10 1
    13    8    9 2
    14    8   23 1
    15   10   14 1
    16   10   11 1
    17   10   24 1
    18   11   12 1
    19   11   19 1
    20   11   25 1
    21   12   13 1
    22   12   17 1
    23   12   26 1
    24   13   14 1
    25   13   15 1
    26   13   27 1
    27   15   16 1
    28   15   28 1
    29   15   29 1
    30   16   30 1
    31   17   18 2
    32   17   31 1
    33   19   20 2
    34   19   32 1
    35   21   33 1
    36   21   34 1
@<TRIPOS>MOLECULE
CHEMBL300406__12
   34    36     0     0     0
SMALL
USER_CHARGES

@<TRIPOS>ATOM
      1 C1         -0.0158    1.3119    0.0093 C.ar      1 <0>         0.3711
      2 N1          1.0888    2.0360    0.0026 N.ar      1 <0>        -0.5901
      3 C2          2.2875    1.4625   -0.0119 C.ar      1 <0>         0.5114
      4 C3          2.3582    0.0588   -0.0202 C.ar      1 <0>        -0.1073
      5 C4          1.1547   -0.6659   -0.0126 C.ar      1 <0>         0.3089
      6 N2          0.0021   -0.0041    0.0020 N.ar      1 <0>        -0.5619
      7 N3          1.5110   -1.9908   -0.0227 N.pl3     1 <0>        -0.4748
      8 C5          2.8729   -2.0476   -0.0358 C.2       1 <0>         0.2668
      9 N4          3.3680   -0.8441   -0.0343 N.2       1 <0>        -0.4583
     10 C6          0.5956   -3.1347   -0.0195 C.3       1 <0>         0.3234
     11 C7          0.2093   -3.5183   -1.4652 C.3       1 <0>        -0.1922
     12 C8          0.1372   -5.0615   -1.4375 C.3       1 <0>        -0.1761
     13 C9          0.4884   -5.4276    0.0216 C.3       1 <0>         0.0983
     14 O1          1.2558   -4.3054    0.5091 O.3       1 <0>        -0.3454
     15 C10         1.3288   -6.7055    0.0625 C.3       1 <0>         0.0735
     16 O2          1.5442   -7.0906    1.4217 O.3       1 <0>        -0.5605
     17 C11         1.1452   -5.6543   -2.3880 C.2       1 <0>         0.3486
     18 O3          0.7762   -6.3556   -3.2993 O.2       1 <0>        -0.4349
     19 C12        -1.1318   -2.9334   -1.8263 C.2       1 <0>         0.3547
     20 O4         -1.2304   -2.1868   -2.7703 O.2       1 <0>        -0.4267
     21 N5          3.4393    2.2295   -0.0193 N.pl3     1 <0>        -0.8153
     22 H1         -0.9693    1.8187    0.0257 H         1 <0>         0.2069
     23 H2          3.4551   -2.9572   -0.0459 H         1 <0>         0.2249
     24 H3         -0.2954   -2.9051    0.5649 H         1 <0>         0.1225
     25 H4          0.9741   -3.1842   -2.1663 H         1 <0>         0.1193
     26 H5         -0.8685   -5.4013   -1.6851 H         1 <0>         0.1272
     27 H6         -0.4201   -5.5508    0.6111 H         1 <0>         0.1069
     28 H7          0.8029   -7.5031   -0.4622 H         1 <0>         0.0715
     29 H8          2.2891   -6.5245   -0.4204 H         1 <0>         0.0622
     30 H9          2.0710   -7.8950    1.5238 H         1 <0>         0.3892
     31 H10         2.1976   -5.4520   -2.2542 H         1 <0>         0.1098
     32 H11        -2.0046   -3.1819   -1.2408 H         1 <0>         0.1146
     33 H12         3.3774    3.1975   -0.0138 H         1 <0>         0.4119
     34 H13         4.3085    1.7992   -0.0299 H         1 <0>         0.4198
@<TRIPOS>BOND
     1    1    6 ar
     2    1    2 ar
     3    1   22 1
     4    2    3 ar
     5    3    4 ar
     6    3   21 1
     7    4    9 1
     8    4    5 ar
     9    5    6 ar
    10    5    7 1
    11    7    8 1
    12    7   10 1
    13    8    9 2
    14    8   23 1
    15   10   14 1
    16   10   11 1
    17   10   24 1
    18   11   12 1
    19   11   19 1
    20   11   25 1
    21   12   13 1
    22   12   17 1
    23   12   26 1
    24   13   14 1
    25   13   15 1
    26   13   27 1
    27   15   16 1
    28   15   28 1
    29   15   29 1
    30   16   30 1
    31   17   18 2
    32   17   31 1
    33   19   20 2
    34   19   32 1
    35   21   33 1
    36   21   34 1
@<TRIPOS>MOLECULE
CHEMBL300406__13
   34    36     0     0     0
SMALL
USER_CHARGES

@<TRIPOS>ATOM
      1 C1         -0.0158    1.3119    0.0093 C.ar      1 <0>         0.3705
      2 N1          1.0888    2.0360    0.0026 N.ar      1 <0>        -0.5903
      3 C2          2.2875    1.4625   -0.0119 C.ar      1 <0>         0.5112
      4 C3          2.3582    0.0588   -0.0202 C.ar      1 <0>        -0.1065
      5 C4          1.1547   -0.6659   -0.0126 C.ar      1 <0>         0.3075
      6 N2          0.0021   -0.0041    0.0020 N.ar      1 <0>        -0.5633
      7 N3          1.5110   -1.9908   -0.0227 N.pl3     1 <0>        -0.4775
      8 C5          2.8729   -2.0476   -0.0358 C.2       1 <0>         0.2677
      9 N4          3.3680   -0.8441   -0.0343 N.2       1 <0>        -0.4593
     10 C6          0.5956   -3.1347   -0.0195 C.3       1 <0>         0.3282
     11 C7          0.2026   -3.5130   -1.4698 C.3       1 <0>        -0.1939
     12 C8         -0.1697   -5.0104   -1.2932 C.3       1 <0>        -0.1782
     13 C9          0.8185   -5.4668   -0.1985 C.3       1 <0>         0.1028
     14 O1          1.2535   -4.2982    0.5065 O.3       1 <0>        -0.3462
     15 C10         0.1174   -6.4245    0.7671 C.3       1 <0>         0.0652
     16 O2          1.0664   -6.9325    1.7070 O.3       1 <0>        -0.5625
     17 C11         0.0570   -5.7738   -2.5726 C.2       1 <0>         0.3536
     18 O3         -0.8653   -6.3377   -3.1108 O.2       1 <0>        -0.4329
     19 C12        -0.9836   -2.7099   -1.9380 C.2       1 <0>         0.3565
     20 O4         -0.8917   -2.0142   -2.9208 O.2       1 <0>        -0.4276
     21 N5          3.4393    2.2295   -0.0193 N.pl3     1 <0>        -0.8154
     22 H1         -0.9693    1.8187    0.0257 H         1 <0>         0.2066
     23 H2          3.4551   -2.9572   -0.0459 H         1 <0>         0.2251
     24 H3         -0.2937   -2.9051    0.5675 H         1 <0>         0.1244
     25 H4          1.0470   -3.3955   -2.1490 H         1 <0>         0.1256
     26 H5         -1.2002   -5.1165   -0.9543 H         1 <0>         0.1270
     27 H6          1.6745   -5.9625   -0.6564 H         1 <0>         0.1099
     28 H7         -0.6711   -5.8918    1.2986 H         1 <0>         0.0594
     29 H8         -0.3173   -7.2520    0.2064 H         1 <0>         0.0661
     30 H9          0.6908   -7.5478    2.3516 H         1 <0>         0.3871
     31 H10         1.0444   -5.8167   -3.0081 H         1 <0>         0.1139
     32 H11        -1.9158   -2.7567   -1.3947 H         1 <0>         0.1139
     33 H12         3.3774    3.1975   -0.0138 H         1 <0>         0.4118
     34 H13         4.3085    1.7992   -0.0299 H         1 <0>         0.4198
@<TRIPOS>BOND
     1    1    6 ar
     2    1    2 ar
     3    1   22 1
     4    2    3 ar
     5    3    4 ar
     6    3   21 1
     7    4    9 1
     8    4    5 ar
     9    5    6 ar
    10    5    7 1
    11    7    8 1
    12    7   10 1
    13    8    9 2
    14    8   23 1
    15   10   14 1
    16   10   11 1
    17   10   24 1
    18   11   12 1
    19   11   19 1
    20   11   25 1
    21   12   13 1
    22   12   17 1
    23   12   26 1
    24   13   14 1
    25   13   15 1
    26   13   27 1
    27   15   16 1
    28   15   28 1
    29   15   29 1
    30   16   30 1
    31   17   18 2
    32   17   31 1
    33   19   20 2
    34   19   32 1
    35   21   33 1
    36   21   34 1
@<TRIPOS>MOLECULE
CHEMBL300406__14
   34    36     0     0     0
SMALL
USER_CHARGES

@<TRIPOS>ATOM
      1 C1         -0.0158    1.3119    0.0093 C.ar      1 <0>         0.3708
      2 N1          1.0888    2.0360    0.0026 N.ar      1 <0>        -0.5900
      3 C2          2.2875    1.4625   -0.0119 C.ar      1 <0>         0.5113
      4 C3          2.3582    0.0588   -0.0202 C.ar      1 <0>        -0.1067
      5 C4          1.1547   -0.6659   -0.0126 C.ar      1 <0>         0.3081
      6 N2          0.0021   -0.0041    0.0020 N.ar      1 <0>        -0.5621
      7 N3          1.5110   -1.9908   -0.0227 N.pl3     1 <0>        -0.4746
      8 C5          2.8729   -2.0476   -0.0358 C.2       1 <0>         0.2687
      9 N4          3.3680   -0.8441   -0.0343 N.2       1 <0>        -0.4590
     10 C6          0.5956   -3.1347   -0.0195 C.3       1 <0>         0.3221
     11 C7          0.2093   -3.5183   -1.4652 C.3       1 <0>        -0.1885
     12 C8          0.1372   -5.0615   -1.4375 C.3       1 <0>        -0.1744
     13 C9          0.4884   -5.4276    0.0216 C.3       1 <0>         0.0964
     14 O1          1.2558   -4.3054    0.5091 O.3       1 <0>        -0.3425
     15 C10         1.3288   -6.7055    0.0625 C.3       1 <0>         0.0809
     16 O2          1.5442   -7.0906    1.4217 O.3       1 <0>        -0.5643
     17 C11        -1.2532   -5.5313   -1.7798 C.2       1 <0>         0.3367
     18 O3         -1.4312   -6.2424   -2.7395 O.2       1 <0>        -0.4265
     19 C12        -1.1318   -2.9334   -1.8263 C.2       1 <0>         0.3392
     20 O4         -1.2304   -2.1868   -2.7703 O.2       1 <0>        -0.4186
     21 N5          3.4393    2.2295   -0.0193 N.pl3     1 <0>        -0.8153
     22 H1         -0.9693    1.8187    0.0257 H         1 <0>         0.2070
     23 H2          3.4551   -2.9572   -0.0459 H         1 <0>         0.2247
     24 H3         -0.2954   -2.9051    0.5649 H         1 <0>         0.1224
     25 H4          0.9741   -3.1842   -2.1663 H         1 <0>         0.1241
     26 H5          0.8663   -5.4903   -2.1250 H         1 <0>         0.1263
     27 H6         -0.4201   -5.5508    0.6111 H         1 <0>         0.1018
     28 H7          0.8029   -7.5031   -0.4622 H         1 <0>         0.0703
     29 H8          2.2891   -6.5245   -0.4204 H         1 <0>         0.0639
     30 H9          2.0710   -7.8950    1.5238 H         1 <0>         0.3889
     31 H10        -2.0905   -5.2321   -1.1668 H         1 <0>         0.1139
     32 H11        -2.0046   -3.1819   -1.2408 H         1 <0>         0.1133
     33 H12         3.3774    3.1975   -0.0138 H         1 <0>         0.4119
     34 H13         4.3085    1.7992   -0.0299 H         1 <0>         0.4198
@<TRIPOS>BOND
     1    1    6 ar
     2    1    2 ar
     3    1   22 1
     4    2    3 ar
     5    3    4 ar
     6    3   21 1
     7    4    9 1
     8    4    5 ar
     9    5    6 ar
    10    5    7 1
    11    7    8 1
    12    7   10 1
    13    8    9 2
    14    8   23 1
    15   10   14 1
    16   10   11 1
    17   10   24 1
    18   11   12 1
    19   11   19 1
    20   11   25 1
    21   12   13 1
    22   12   17 1
    23   12   26 1
    24   13   14 1
    25   13   15 1
    26   13   27 1
    27   15   16 1
    28   15   28 1
    29   15   29 1
    30   16   30 1
    31   17   18 2
    32   17   31 1
    33   19   20 2
    34   19   32 1
    35   21   33 1
    36   21   34 1
@<TRIPOS>MOLECULE
CHEMBL300406__15
   34    36     0     0     0
SMALL
USER_CHARGES

@<TRIPOS>ATOM
      1 C1         -0.0158    1.3119    0.0093 C.ar      1 <0>         0.3703
      2 N1          1.0888    2.0360    0.0026 N.ar      1 <0>        -0.5907
      3 C2          2.2875    1.4625   -0.0119 C.ar      1 <0>         0.5111
      4 C3          2.3582    0.0588   -0.0202 C.ar      1 <0>        -0.1093
      5 C4          1.1547   -0.6659   -0.0126 C.ar      1 <0>         0.3081
      6 N2          0.0021   -0.0041    0.0020 N.ar      1 <0>        -0.5608
      7 N3          1.5110   -1.9908   -0.0227 N.pl3     1 <0>        -0.4863
      8 C5          2.8729   -2.0476   -0.0358 C.2       1 <0>         0.2569
      9 N4          3.3680   -0.8441   -0.0343 N.2       1 <0>        -0.4558
     10 C6          0.5956   -3.1347   -0.0195 C.3       1 <0>         0.3148
     11 C7          0.1696   -3.4689   -1.4622 C.3       1 <0>        -0.1842
     12 C8          0.7114   -4.9001   -1.6960 C.3       1 <0>        -0.1747
     13 C9          1.8181   -5.0087   -0.6163 C.3       1 <0>         0.0826
     14 O1          1.2630   -4.2932    0.5082 O.3       1 <0>        -0.3302
     15 C10         2.0728   -6.4725   -0.2510 C.3       1 <0>         0.0776
     16 O2          3.1735   -6.5523    0.6568 O.3       1 <0>        -0.5619
     17 C11        -0.3668   -5.9275   -1.4660 C.2       1 <0>         0.3374
     18 O3         -0.6966   -6.6675   -2.3616 O.2       1 <0>        -0.4295
     19 C12        -1.3320   -3.4463   -1.5875 C.2       1 <0>         0.3440
     20 O4         -1.8610   -2.7001   -2.3759 O.2       1 <0>        -0.4164
     21 N5          3.4393    2.2295   -0.0193 N.pl3     1 <0>        -0.8156
     22 H1         -0.9693    1.8187    0.0257 H         1 <0>         0.2067
     23 H2          3.4551   -2.9572   -0.0459 H         1 <0>         0.2203
     24 H3         -0.2821   -2.9051    0.5847 H         1 <0>         0.1443
     25 H4          0.6225   -2.7699   -2.1654 H         1 <0>         0.1264
     26 H5          1.1330   -4.9979   -2.6964 H         1 <0>         0.1307
     27 H6          2.7366   -4.5321   -0.9588 H         1 <0>         0.1012
     28 H7          1.1826   -6.8896    0.2197 H         1 <0>         0.0624
     29 H8          2.3048   -7.0372   -1.1540 H         1 <0>         0.0724
     30 H9          3.3918   -7.4533    0.9319 H         1 <0>         0.3903
     31 H10        -0.8447   -6.0020   -0.5004 H         1 <0>         0.1149
     32 H11        -1.9350   -4.0976   -0.9721 H         1 <0>         0.1116
     33 H12         3.3774    3.1975   -0.0138 H         1 <0>         0.4118
     34 H13         4.3085    1.7992   -0.0299 H         1 <0>         0.4196
@<TRIPOS>BOND
     1    1    6 ar
     2    1    2 ar
     3    1   22 1
     4    2    3 ar
     5    3    4 ar
     6    3   21 1
     7    4    9 1
     8    4    5 ar
     9    5    6 ar
    10    5    7 1
    11    7    8 1
    12    7   10 1
    13    8    9 2
    14    8   23 1
    15   10   14 1
    16   10   11 1
    17   10   24 1
    18   11   12 1
    19   11   19 1
    20   11   25 1
    21   12   13 1
    22   12   17 1
    23   12   26 1
    24   13   14 1
    25   13   15 1
    26   13   27 1
    27   15   16 1
    28   15   28 1
    29   15   29 1
    30   16   30 1
    31   17   18 2
    32   17   31 1
    33   19   20 2
    34   19   32 1
    35   21   33 1
    36   21   34 1
@<TRIPOS>MOLECULE
CHEMBL8771
   32    34     0     0     0
SMALL
USER_CHARGES

@<TRIPOS>ATOM
      1 C1         -0.0158    1.3119    0.0093 C.ar      1 <0>         0.3683
      2 N1          1.0888    2.0360    0.0026 N.ar      1 <0>        -0.5923
      3 C2          2.2875    1.4625   -0.0119 C.ar      1 <0>         0.5110
      4 C3          2.3582    0.0588   -0.0202 C.ar      1 <0>        -0.1125
      5 C4          1.1547   -0.6659   -0.0126 C.ar      1 <0>         0.3083
      6 N2          0.0021   -0.0041    0.0020 N.ar      1 <0>        -0.5587
      7 N3          1.5110   -1.9908   -0.0227 N.pl3     1 <0>        -0.4604
      8 C5          2.8729   -2.0476   -0.0358 C.2       1 <0>         0.2475
      9 N4          3.3680   -0.8441   -0.0343 N.2       1 <0>        -0.4554
     10 C6          0.5956   -3.1347   -0.0195 C.3       1 <0>         0.1625
     11 H1         -0.4389   -2.7921    0.0048 H         1 <0>         0.1333
     12 C7          0.8804   -4.0334    1.1613 C.2       1 <0>        -0.1301
     13 C8          1.5493   -5.0927    0.7951 C.2       1 <0>        -0.1542
     14 C9          1.8222   -5.0771   -0.6910 C.3       1 <0>         0.1034
     15 H2          2.8527   -4.7795   -0.8847 H         1 <0>         0.0804
     16 C10         0.8398   -4.0234   -1.2612 C.3       1 <0>         0.1098
     17 H3          1.3006   -3.4520   -2.0669 H         1 <0>         0.0849
     18 O1         -0.3741   -4.6369   -1.6995 O.3       1 <0>        -0.5356
     19 O2          1.5611   -6.3622   -1.2586 O.3       1 <0>        -0.5483
     20 C11         1.9918   -6.1874    1.7316 C.3       1 <0>         0.1240
     21 O3          1.5652   -5.8790    3.0601 O.3       1 <0>        -0.5677
     22 N5          3.4393    2.2295   -0.0193 N.pl3     1 <0>        -0.8167
     23 H4         -0.9693    1.8187    0.0257 H         1 <0>         0.2067
     24 H5          3.4551   -2.9572   -0.0459 H         1 <0>         0.2148
     25 H6          0.5713   -3.8263    2.1752 H         1 <0>         0.1479
     26 H7         -0.2702   -5.2039   -2.4759 H         1 <0>         0.3949
     27 H8          2.1149   -7.0699   -0.9013 H         1 <0>         0.3852
     28 H9          1.5504   -7.1337    1.4187 H         1 <0>         0.0661
     29 H10         3.0785   -6.2681    1.7084 H         1 <0>         0.0636
     30 H11         1.8162   -6.5422    3.7177 H         1 <0>         0.3889
     31 H12         3.3774    3.1975   -0.0138 H         1 <0>         0.4113
     32 H13         4.3085    1.7992   -0.0299 H         1 <0>         0.4190
@<TRIPOS>BOND
     1    1    6 ar
     2    1    2 ar
     3    1   23 1
     4    2    3 ar
     5    3    4 ar
     6    3   22 1
     7    4    9 1
     8    4    5 ar
     9    5    6 ar
    10    5    7 1
    11    7    8 1
    12    7   10 1
    13    8    9 2
    14    8   24 1
    15   10   11 1
    16   10   16 1
    17   10   12 1
    18   12   13 2
    19   12   25 1
    20   13   14 1
    21   13   20 1
    22   14   15 1
    23   14   16 1
    24   14   19 1
    25   16   17 1
    26   16   18 1
    27   18   26 1
    28   19   27 1
    29   20   21 1
    30   20   28 1
    31   20   29 1
    32   21   30 1
    33   22   31 1
    34   22   32 1
@<TRIPOS>MOLECULE
CHEMBL281476
   30    31     0     0     0
SMALL
USER_CHARGES

@<TRIPOS>ATOM
      1 C1         -0.0158    1.3119    0.0093 C.ar      1 <0>         0.3681
      2 N1          1.0888    2.0360    0.0026 N.ar      1 <0>        -0.5906
      3 C2          2.2875    1.4625   -0.0119 C.ar      1 <0>         0.5113
      4 C3          2.3582    0.0588   -0.0202 C.ar      1 <0>        -0.1038
      5 C4          1.1547   -0.6659   -0.0126 C.ar      1 <0>         0.3038
      6 N2          0.0021   -0.0041    0.0020 N.ar      1 <0>        -0.5631
      7 N3          1.5110   -1.9908   -0.0227 N.pl3     1 <0>        -0.4654
      8 C5          2.8729   -2.0476   -0.0358 C.2       1 <0>         0.2802
      9 N4          3.3680   -0.8441   -0.0343 N.2       1 <0>        -0.4605
     10 C6          0.5956   -3.1347   -0.0195 C.3       1 <0>         0.2552
     11 C7          0.1989   -3.4566    1.3982 C.2       1 <0>         0.3207
     12 O1          0.4472   -4.5432    1.8628 O.2       1 <0>        -0.4132
     13 O2          1.2457   -4.2666   -0.6009 O.3       1 <0>        -0.3357
     14 C8          0.3580   -5.1713   -1.2608 C.3       1 <0>         0.0284
     15 C9          0.9234   -6.5907   -1.1799 C.3       1 <0>         0.0884
     16 O3          2.1471   -6.6585   -1.9146 O.3       1 <0>        -0.5650
     17 C10         0.2141   -4.7695   -2.7061 C.2       1 <0>         0.3220
     18 O4          0.8103   -3.8077   -3.1276 O.2       1 <0>        -0.4281
     19 N5          3.4393    2.2295   -0.0193 N.pl3     1 <0>        -0.8153
     20 H1         -0.9693    1.8187    0.0257 H         1 <0>         0.2073
     21 H2          3.4551   -2.9572   -0.0459 H         1 <0>         0.2249
     22 H3         -0.2944   -2.8894   -0.5991 H         1 <0>         0.1186
     23 H4         -0.3076   -2.7155    1.9988 H         1 <0>         0.1216
     24 H5         -0.6180   -5.1409   -0.7763 H         1 <0>         0.1106
     25 H6          1.1108   -6.8483   -0.1374 H         1 <0>         0.0730
     26 H7          0.2054   -7.2926   -1.6042 H         1 <0>         0.0760
     27 H8          2.5628   -7.5316   -1.9068 H         1 <0>         0.3883
     28 H9         -0.4222   -5.3418   -3.3649 H         1 <0>         0.1103
     29 H10         3.3774    3.1975   -0.0138 H         1 <0>         0.4117
     30 H11         4.3085    1.7992   -0.0299 H         1 <0>         0.4200
@<TRIPOS>BOND
     1    1    6 ar
     2    1    2 ar
     3    1   20 1
     4    2    3 ar
     5    3    4 ar
     6    3   19 1
     7    4    9 1
     8    4    5 ar
     9    5    6 ar
    10    5    7 1
    11    7    8 1
    12    7   10 1
    13    8    9 2
    14    8   21 1
    15   10   11 1
    16   10   13 1
    17   10   22 1
    18   11   12 2
    19   11   23 1
    20   13   14 1
    21   14   15 1
    22   14   17 1
    23   14   24 1
    24   15   16 1
    25   15   25 1
    26   15   26 1
    27   16   27 1
    28   17   18 2
    29   17   28 1
    30   19   29 1
    31   19   30 1
@<TRIPOS>MOLECULE
CHEMBL281476__1
   29    30     0     0     0
SMALL
USER_CHARGES

@<TRIPOS>ATOM
      1 C1         -0.0852    1.3078    0.0635 C.ar      1 <0>         0.3322
      2 N1          1.0068    2.0484    0.1263 N.ar      1 <0>        -0.6043
      3 C2          2.2136    1.4935    0.1629 C.ar      1 <0>         0.5004
      4 C3          2.3072    0.0914    0.1334 C.ar      1 <0>        -0.1085
      5 C4          1.1161   -0.6515    0.0665 C.ar      1 <0>         0.2615
      6 N2         -0.0461   -0.0074    0.0338 N.ar      1 <0>        -0.5364
      7 N3          1.4940   -1.9721    0.0511 N.pl3     1 <0>        -0.3290
      8 C5          2.8571   -2.0071    0.1068 C.2       1 <0>         0.2006
      9 N4          3.3310   -0.7953    0.1550 N.2       1 <0>        -0.4833
     10 C6          0.6381   -3.0786   -0.0100 C.2       1 <0>        -0.1520
     11 C7         -0.6762   -2.8991   -0.0599 C.2       1 <0>         0.2528
     12 O1         -1.5032   -3.9670   -0.2338 O.3       1 <0>        -0.6640
     13 O2          1.1534   -4.3371   -0.0183 O.3       1 <0>        -0.2333
     14 C8          1.8309   -4.7686    1.1636 C.3       1 <0>        -0.0111
     15 C9          3.0024   -5.6740    0.7781 C.3       1 <0>         0.0902
     16 O3          2.5026   -6.8675    0.1718 O.3       1 <0>        -0.5567
     17 C10         0.8731   -5.5326    2.0411 C.2       1 <0>         0.3112
     18 O4         -0.2716   -5.6913    1.6905 O.2       1 <0>        -0.3972
     19 N5          3.3519    2.2779    0.2282 N.pl3     1 <0>        -0.8295
     20 H1         -1.0463    1.7998    0.0402 H         1 <0>         0.1947
     21 H2          3.4544   -2.9069    0.1104 H         1 <0>         0.2026
     22 H3         -1.0897   -1.9061    0.0375 H         1 <0>         0.0947
     23 H4          2.2058   -3.9000    1.7050 H         1 <0>         0.0871
     24 H5          3.6487   -5.1514    0.0729 H         1 <0>         0.0551
     25 H6          3.5720   -5.9311    1.6711 H         1 <0>         0.0577
     26 H7          3.1917   -7.4897   -0.0986 H         1 <0>         0.3731
     27 H8          1.2104   -5.9382    2.9834 H         1 <0>         0.0750
     28 H9          3.2743    3.2445    0.2476 H         1 <0>         0.4027
     29 H10         4.2273    1.8610    0.2544 H         1 <0>         0.4136
@<TRIPOS>BOND
     1    1    6 ar
     2    1    2 ar
     3    1   20 1
     4    2    3 ar
     5    3    4 ar
     6    3   19 1
     7    4    9 1
     8    4    5 ar
     9    5    6 ar
    10    5    7 1
    11    7    8 1
    12    7   10 1
    13    8    9 2
    14    8   21 1
    15   10   11 2
    16   10   13 1
    17   11   12 1
    18   11   22 1
    19   13   14 1
    20   14   15 1
    21   14   17 1
    22   14   23 1
    23   15   16 1
    24   15   24 1
    25   15   25 1
    26   16   26 1
    27   17   18 2
    28   17   27 1
    29   19   28 1
    30   19   29 1
@<TRIPOS>MOLECULE
CHEMBL281476__2
   30    31     0     0     0
SMALL
USER_CHARGES

@<TRIPOS>ATOM
      1 C1          0.5550    0.9840    0.7575 C.ar      1 <0>         0.3707
      2 N1          1.7074    1.6292    0.7590 N.ar      1 <0>        -0.5905
      3 C2          2.8571    0.9847    0.5899 C.ar      1 <0>         0.5118
      4 C3          2.8234   -0.4085    0.4079 C.ar      1 <0>        -0.1081
      5 C4          1.5725   -1.0481    0.4143 C.ar      1 <0>         0.3027
      6 N2          0.4751   -0.3191    0.5908 N.ar      1 <0>        -0.5626
      7 N3          1.8286   -2.3818    0.2195 N.pl3     1 <0>        -0.4866
      8 C5          3.1791   -2.5257    0.1023 C.2       1 <0>         0.2619
      9 N4          3.7608   -1.3669    0.2131 N.2       1 <0>        -0.4558
     10 C6          0.8333   -3.4546    0.1506 C.3       1 <0>         0.2437
     11 C7          0.5039   -3.9245    1.5440 C.2       1 <0>         0.3442
     12 O1          0.6306   -5.0899    1.8340 O.2       1 <0>        -0.3992
     13 O2          1.3602   -4.5452   -0.6077 O.3       1 <0>        -0.3180
     14 C8          1.1485   -4.4296   -2.0163 C.3       1 <0>         0.0099
     15 C9          2.2833   -5.1346   -2.7620 C.3       1 <0>         0.0880
     16 O3          2.2361   -6.5360   -2.4864 O.3       1 <0>        -0.5624
     17 C10        -0.1661   -5.0699   -2.3808 C.2       1 <0>         0.3274
     18 O4         -0.8906   -5.4971   -1.5143 O.2       1 <0>        -0.4293
     19 N5          4.0597    1.6694    0.5925 N.pl3     1 <0>        -0.8152
     20 H1         -0.3556    1.5462    0.9030 H         1 <0>         0.2078
     21 H2          3.6907   -3.4631   -0.0587 H         1 <0>         0.2230
     22 H3         -0.0708   -3.0810   -0.3302 H         1 <0>         0.1239
     23 H4          0.1544   -3.2190    2.2833 H         1 <0>         0.1279
     24 H5          1.1294   -3.3762   -2.2956 H         1 <0>         0.1104
     25 H6          2.1704   -4.9711   -3.8338 H         1 <0>         0.0755
     26 H7          3.2406   -4.7313   -2.4319 H         1 <0>         0.0673
     27 H8          2.9284   -7.0471   -2.9275 H         1 <0>         0.3885
     28 H9         -0.4603   -5.1467   -3.4172 H         1 <0>         0.1110
     29 H10         4.0700    2.6311    0.7187 H         1 <0>         0.4121
     30 H11         4.8924    1.1877    0.4680 H         1 <0>         0.4199
@<TRIPOS>BOND
     1    1    6 ar
     2    1    2 ar
     3    1   20 1
     4    2    3 ar
     5    3    4 ar
     6    3   19 1
     7    4    9 1
     8    4    5 ar
     9    5    6 ar
    10    5    7 1
    11    7    8 1
    12    7   10 1
    13    8    9 2
    14    8   21 1
    15   10   11 1
    16   10   13 1
    17   10   22 1
    18   11   12 2
    19   11   23 1
    20   13   14 1
    21   14   15 1
    22   14   17 1
    23   14   24 1
    24   15   16 1
    25   15   25 1
    26   15   26 1
    27   16   27 1
    28   17   18 2
    29   17   28 1
    30   19   29 1
    31   19   30 1
@<TRIPOS>MOLECULE
CHEMBL281476__3
   29    30     0     0     0
SMALL
USER_CHARGES

@<TRIPOS>ATOM
      1 C1          0.6698    1.1650    1.4847 C.ar      1 <0>         0.3322
      2 N1          1.8379    1.6672    1.8425 N.ar      1 <0>        -0.6043
      3 C2          2.9476    0.9385    1.7838 C.ar      1 <0>         0.5004
      4 C3          2.8542   -0.3884    1.3298 C.ar      1 <0>        -0.1085
      5 C4          1.5886   -0.8755    0.9609 C.ar      1 <0>         0.2615
      6 N2          0.5345   -0.0712    1.0537 N.ar      1 <0>        -0.5364
      7 N3          1.7845   -2.1758    0.5637 N.pl3     1 <0>        -0.3290
      8 C5          3.1159   -2.4458    0.6933 C.2       1 <0>         0.2002
      9 N4          3.7405   -1.3955    1.1429 N.2       1 <0>        -0.4831
     10 C6          0.7994   -3.0613    0.1098 C.2       1 <0>        -0.1517
     11 C7         -0.4651   -2.6649    0.0334 C.2       1 <0>         0.2528
     12 O1         -1.4395   -3.5566   -0.2985 O.3       1 <0>        -0.6645
     13 O2          1.1382   -4.3275   -0.2528 O.3       1 <0>        -0.2333
     14 C8          1.9846   -4.4707   -1.3951 C.3       1 <0>        -0.0112
     15 C9          2.9298   -5.6552   -1.1843 C.3       1 <0>         0.0901
     16 O3          2.1713   -6.8647   -1.1218 O.3       1 <0>        -0.5567
     17 C10         1.1397   -4.7140   -2.6191 C.2       1 <0>         0.3116
     18 O4         -0.0632   -4.7599   -2.5230 O.2       1 <0>        -0.3978
     19 N5          4.1669    1.4738    2.1606 N.pl3     1 <0>        -0.8295
     20 H1         -0.2078    1.7908    1.5524 H         1 <0>         0.1947
     21 H2          3.5825   -3.3910    0.4579 H         1 <0>         0.2026
     22 H3         -0.7213   -1.6351    0.2344 H         1 <0>         0.0948
     23 H4          2.5681   -3.5601   -1.5315 H         1 <0>         0.0873
     24 H5          3.6340   -5.7104   -2.0144 H         1 <0>         0.0578
     25 H6          3.4776   -5.5213   -0.2515 H         1 <0>         0.0552
     26 H7          2.7071   -7.6586   -0.9891 H         1 <0>         0.3731
     27 H8          1.6100   -4.8472   -3.5821 H         1 <0>         0.0752
     28 H9          4.2185    2.3910    2.4719 H         1 <0>         0.4028
     29 H10         4.9699    0.9317    2.1132 H         1 <0>         0.4136
@<TRIPOS>BOND
     1    1    6 ar
     2    1    2 ar
     3    1   20 1
     4    2    3 ar
     5    3    4 ar
     6    3   19 1
     7    4    9 1
     8    4    5 ar
     9    5    6 ar
    10    5    7 1
    11    7    8 1
    12    7   10 1
    13    8    9 2
    14    8   21 1
    15   10   11 2
    16   10   13 1
    17   11   12 1
    18   11   22 1
    19   13   14 1
    20   14   15 1
    21   14   17 1
    22   14   23 1
    23   15   16 1
    24   15   24 1
    25   15   25 1
    26   16   26 1
    27   17   18 2
    28   17   27 1
    29   19   28 1
    30   19   29 1
@<TRIPOS>MOLECULE
CHEMBL281476__4
   30    31     0     0     0
SMALL
USER_CHARGES

@<TRIPOS>ATOM
      1 C1         -1.3614    0.8403    0.4774 C.ar      1 <0>         0.3707
      2 N1         -0.5142    1.8394    0.6465 N.ar      1 <0>        -0.5906
      3 C2          0.7985    1.6335    0.6615 C.ar      1 <0>         0.5118
      4 C3          1.2725    0.3211    0.4925 C.ar      1 <0>        -0.1080
      5 C4          0.3309   -0.7065    0.3162 C.ar      1 <0>         0.3026
      6 N2         -0.9634   -0.4037    0.3155 N.ar      1 <0>        -0.5627
      7 N3          1.0552   -1.8635    0.1779 N.pl3     1 <0>        -0.4864
      8 C5          2.3745   -1.5330    0.2689 C.2       1 <0>         0.2621
      9 N4          2.4998   -0.2509    0.4534 N.2       1 <0>        -0.4560
     10 C6          0.5105   -3.2077   -0.0291 C.3       1 <0>         0.2437
     11 C7          0.2557   -3.4256   -1.4984 C.2       1 <0>         0.3440
     12 O1          0.7518   -4.3705   -2.0635 O.2       1 <0>        -0.3989
     13 O2          1.4474   -4.1789    0.4411 O.3       1 <0>        -0.3180
     14 C8          1.3149   -4.4897    1.8295 C.3       1 <0>         0.0100
     15 C9          2.6797   -4.8865    2.3958 C.3       1 <0>         0.0879
     16 O3          3.1181   -6.0978    1.7774 O.3       1 <0>        -0.5624
     17 C10         0.3491   -5.6341    1.9982 C.2       1 <0>         0.3271
     18 O4         -0.2313   -6.0809    1.0380 O.2       1 <0>        -0.4289
     19 N5          1.6784    2.6867    0.8389 N.pl3     1 <0>        -0.8151
     20 H1         -2.4205    1.0515    0.4763 H         1 <0>         0.2077
     21 H2          3.1948   -2.2320    0.1982 H         1 <0>         0.2230
     22 H3         -0.4250   -3.3093    0.5209 H         1 <0>         0.1239
     23 H4         -0.3705   -2.7368   -2.0458 H         1 <0>         0.1277
     24 H5          0.9401   -3.6163    2.3632 H         1 <0>         0.1104
     25 H6          3.4008   -4.0942    2.1947 H         1 <0>         0.0673
     26 H7          2.5966   -5.0374    3.4721 H         1 <0>         0.0755
     27 H8          3.9788   -6.4095    2.0892 H         1 <0>         0.3885
     28 H9          0.1759   -6.0547    2.9777 H         1 <0>         0.1110
     29 H10         1.3391    3.5880    0.9541 H         1 <0>         0.4121
     30 H11         2.6346    2.5236    0.8479 H         1 <0>         0.4199
@<TRIPOS>BOND
     1    1    6 ar
     2    1    2 ar
     3    1   20 1
     4    2    3 ar
     5    3    4 ar
     6    3   19 1
     7    4    9 1
     8    4    5 ar
     9    5    6 ar
    10    5    7 1
    11    7    8 1
    12    7   10 1
    13    8    9 2
    14    8   21 1
    15   10   11 1
    16   10   13 1
    17   10   22 1
    18   11   12 2
    19   11   23 1
    20   13   14 1
    21   14   15 1
    22   14   17 1
    23   14   24 1
    24   15   16 1
    25   15   25 1
    26   15   26 1
    27   16   27 1
    28   17   18 2
    29   17   28 1
    30   19   29 1
    31   19   30 1
@<TRIPOS>MOLECULE
CHEMBL281476__5
   30    31     0     0     0
SMALL
USER_CHARGES

@<TRIPOS>ATOM
      1 C1         -0.0158    1.3119    0.0093 C.ar      1 <0>         0.3681
      2 N1          1.0888    2.0360    0.0026 N.ar      1 <0>        -0.5906
      3 C2          2.2875    1.4625   -0.0119 C.ar      1 <0>         0.5113
      4 C3          2.3582    0.0588   -0.0202 C.ar      1 <0>        -0.1037
      5 C4          1.1547   -0.6659   -0.0126 C.ar      1 <0>         0.3038
      6 N2          0.0021   -0.0041    0.0020 N.ar      1 <0>        -0.5631
      7 N3          1.5110   -1.9908   -0.0227 N.pl3     1 <0>        -0.4654
      8 C5          2.8729   -2.0476   -0.0358 C.2       1 <0>         0.2802
      9 N4          3.3680   -0.8441   -0.0343 N.2       1 <0>        -0.4605
     10 C6          0.5956   -3.1347   -0.0195 C.3       1 <0>         0.2552
     11 C7          0.1713   -3.4424   -1.4324 C.2       1 <0>         0.3207
     12 O1          0.4104   -4.5243   -1.9126 O.2       1 <0>        -0.4132
     13 O2          1.2568   -4.2723    0.5378 O.3       1 <0>        -0.3357
     14 C8          0.3820   -5.1837    1.2057 C.3       1 <0>         0.0285
     15 C9          0.9456   -6.6021    1.0996 C.3       1 <0>         0.0884
     16 O3          2.1834   -6.6772    1.8096 O.3       1 <0>        -0.5650
     17 C10         0.2663   -4.7964    2.6574 C.2       1 <0>         0.3219
     18 O4          0.8707   -3.8387    3.0769 O.2       1 <0>        -0.4282
     19 N5          3.4393    2.2295   -0.0193 N.pl3     1 <0>        -0.8153
     20 H1         -0.9693    1.8187    0.0257 H         1 <0>         0.2073
     21 H2          3.4551   -2.9572   -0.0459 H         1 <0>         0.2249
     22 H3         -0.2829   -2.8953    0.5797 H         1 <0>         0.1186
     23 H4         -0.3467   -2.6954   -2.0155 H         1 <0>         0.1216
     24 H5         -0.6032   -5.1485    0.7406 H         1 <0>         0.1107
     25 H6          0.2360   -7.3083    1.5307 H         1 <0>         0.0760
     26 H7          1.1126   -6.8493    0.0512 H         1 <0>         0.0730
     27 H8          2.5987   -7.5501    1.7849 H         1 <0>         0.3883
     28 H9         -0.3570   -5.3753    3.3228 H         1 <0>         0.1103
     29 H10         3.3774    3.1975   -0.0138 H         1 <0>         0.4117
     30 H11         4.3085    1.7992   -0.0299 H         1 <0>         0.4200
@<TRIPOS>BOND
     1    1    6 ar
     2    1    2 ar
     3    1   20 1
     4    2    3 ar
     5    3    4 ar
     6    3   19 1
     7    4    9 1
     8    4    5 ar
     9    5    6 ar
    10    5    7 1
    11    7    8 1
    12    7   10 1
    13    8    9 2
    14    8   21 1
    15   10   11 1
    16   10   13 1
    17   10   22 1
    18   11   12 2
    19   11   23 1
    20   13   14 1
    21   14   15 1
    22   14   17 1
    23   14   24 1
    24   15   16 1
    25   15   25 1
    26   15   26 1
    27   16   27 1
    28   17   18 2
    29   17   28 1
    30   19   29 1
    31   19   30 1
@<TRIPOS>MOLECULE
CHEMBL159059
   36    38     0     0     0
SMALL
USER_CHARGES

@<TRIPOS>ATOM
      1 C1         -0.0122    1.3485   -0.4767 C.ar      1 <0>        -0.2469
      2 C2          1.1835    2.0398   -0.5516 C.ar      1 <0>         0.2193
      3 N1          2.3420    1.4257   -0.4190 N.ar      1 <0>        -0.4924
      4 C3          2.4190    0.1192   -0.2074 C.ar      1 <0>         0.2628
      5 C4          1.2528   -0.6556   -0.1178 C.ar      1 <0>        -0.0214
      6 C5          0.0046   -0.0242   -0.2563 C.ar      1 <0>         0.3895
      7 N2         -1.1786   -0.7509   -0.1749 N.pl3     1 <0>        -0.7901
      8 N3          1.6382   -1.9381    0.0990 N.2       1 <0>        -0.4492
      9 C6          2.9367   -1.9985    0.1471 C.2       1 <0>         0.3052
     10 N4          3.4679   -0.7577   -0.0360 N.pl3     1 <0>        -0.4429
     11 C7          4.8929   -0.4179   -0.0487 C.3       1 <0>         0.1322
     12 C8          5.6193   -1.1703   -1.1912 C.3       1 <0>        -0.1295
     13 C9          5.8487   -2.5761   -0.5830 C.3       1 <0>        -0.0922
     14 C10         6.1882   -2.2977    0.8959 C.3       1 <0>         0.0756
     15 C11         5.5804   -0.9255    1.2356 C.3       1 <0>         0.0559
     16 O1          4.6193   -1.0619    2.2842 O.3       1 <0>        -0.5597
     17 O2          7.6056   -2.2631    1.0747 O.3       1 <0>        -0.5451
     18 C12         7.0182   -3.2760   -1.2782 C.3       1 <0>         0.0902
     19 O3          7.1370   -4.6111   -0.7826 O.3       1 <0>        -0.5711
     20 H1         -0.9510    1.8714   -0.5840 H         1 <0>         0.1869
     21 H2          1.1673    3.1060   -0.7229 H         1 <0>         0.2146
     22 H3         -2.0321   -0.3004   -0.2722 H         1 <0>         0.4255
     23 H4         -1.1502   -1.7081   -0.0207 H         1 <0>         0.4293
     24 H5          3.5093   -2.8999    0.3084 H         1 <0>         0.2330
     25 H6          5.0264    0.6588   -0.1529 H         1 <0>         0.1183
     26 H7          4.9870   -1.2311   -2.0770 H         1 <0>         0.0943
     27 H8          6.5698   -0.6912   -1.4260 H         1 <0>         0.1136
     28 H9          4.9429   -3.1775   -0.6598 H         1 <0>         0.0963
     29 H10         5.7500   -3.0677    1.5309 H         1 <0>         0.0812
     30 H11         6.3666   -0.2332    1.5368 H         1 <0>         0.0981
     31 H12         4.9905   -1.3780    3.1193 H         1 <0>         0.3977
     32 H13         7.8831   -2.0917    1.9850 H         1 <0>         0.3842
     33 H14         6.8390   -3.3021   -2.3531 H         1 <0>         0.0470
     34 H15         7.9400   -2.7303   -1.0767 H         1 <0>         0.0660
     35 H16         7.8600   -5.1154   -1.1803 H         1 <0>         0.3884
     36 H17         3.1602    1.9433   -0.4781 H         1 <0>         0.4352
@<TRIPOS>BOND
     1    1    6 ar
     2    1    2 ar
     3    1   20 1
     4    2    3 ar
     5    2   21 1
     6    3    4 ar
     7    3   36 1
     8    4   10 1
     9    4    5 ar
    10    5    6 ar
    11    5    8 1
    12    6    7 1
    13    7   22 1
    14    7   23 1
    15    8    9 2
    16    9   10 1
    17    9   24 1
    18   10   11 1
    19   11   15 1
    20   11   12 1
    21   11   25 1
    22   12   13 1
    23   12   26 1
    24   12   27 1
    25   13   14 1
    26   13   18 1
    27   13   28 1
    28   14   15 1
    29   14   17 1
    30   14   29 1
    31   15   16 1
    32   15   30 1
    33   16   31 1
    34   17   32 1
    35   18   19 1
    36   18   33 1
    37   18   34 1
    38   19   35 1
@<TRIPOS>MOLECULE
CHEMBL159059__1
   36    38     0     0     0
SMALL
USER_CHARGES

@<TRIPOS>ATOM
      1 C1         -0.0168    1.3861    0.0097 C.ar      1 <0>        -0.2464
      2 C2          1.1782    2.0824    0.0020 C.ar      1 <0>         0.2225
      3 N1          2.3382    1.4569   -0.0129 N.ar      1 <0>        -0.4916
      4 C3          2.4172    0.1336   -0.0208 C.ar      1 <0>         0.2673
      5 C4          1.2518   -0.6475   -0.0134 C.ar      1 <0>        -0.0251
      6 C5          0.0021   -0.0041    0.0020 C.ar      1 <0>         0.3904
      7 N2         -1.1804   -0.7364    0.0098 N.pl3     1 <0>        -0.7890
      8 N3          1.6393   -1.9475   -0.0242 N.2       1 <0>        -0.4425
      9 C6          2.9384   -2.0127   -0.0374 C.2       1 <0>         0.2844
     10 N4          3.4679   -0.7577   -0.0360 N.pl3     1 <0>        -0.4607
     11 C7          4.8929   -0.4179   -0.0487 C.3       1 <0>         0.1344
     12 C8          5.5676   -1.0216   -1.2929 C.3       1 <0>        -0.1257
     13 C9          6.6559   -1.9868   -0.7794 C.3       1 <0>        -0.0844
     14 C10         6.9832   -1.4682    0.6429 C.3       1 <0>         0.0822
     15 C11         5.5948   -1.0373    1.1774 C.3       1 <0>         0.0581
     16 O1          5.7380   -0.0657    2.2155 O.3       1 <0>        -0.5571
     17 O2          7.8717   -0.3506    0.5824 O.3       1 <0>        -0.5426
     18 C12         7.8963   -1.9191   -1.6726 C.3       1 <0>         0.0860
     19 O3          8.8429   -2.9021   -1.2485 O.3       1 <0>        -0.5730
     20 H1         -0.9567    1.9179    0.0260 H         1 <0>         0.1881
     21 H2          1.1605    3.1623    0.0080 H         1 <0>         0.2158
     22 H3         -2.0350   -0.2775    0.0208 H         1 <0>         0.4263
     23 H4         -1.1505   -1.7059    0.0043 H         1 <0>         0.4294
     24 H5          3.5127   -2.9273   -0.0481 H         1 <0>         0.2390
     25 H6          5.0183    0.6648   -0.0434 H         1 <0>         0.1214
     26 H7          4.8348   -1.5674   -1.8873 H         1 <0>         0.0914
     27 H8          6.0212   -0.2319   -1.8919 H         1 <0>         0.1015
     28 H9          6.2719   -3.0059   -0.7349 H         1 <0>         0.1047
     29 H10         7.4035   -2.2644    1.2572 H         1 <0>         0.0863
     30 H11         5.0394   -1.9031    1.5380 H         1 <0>         0.0857
     31 H12         6.1734   -0.4013    3.0110 H         1 <0>         0.3967
     32 H13         8.1077    0.0115    1.4475 H         1 <0>         0.3866
     33 H14         7.6105   -2.1123   -2.7066 H         1 <0>         0.0486
     34 H15         8.3438   -0.9280   -1.5985 H         1 <0>         0.0643
     35 H16         9.6561   -2.9164   -1.7715 H         1 <0>         0.3891
     36 H17         3.1559    1.9787   -0.0185 H         1 <0>         0.4378
@<TRIPOS>BOND
     1    1    6 ar
     2    1    2 ar
     3    1   20 1
     4    2    3 ar
     5    2   21 1
     6    3    4 ar
     7    3   36 1
     8    4   10 1
     9    4    5 ar
    10    5    6 ar
    11    5    8 1
    12    6    7 1
    13    7   22 1
    14    7   23 1
    15    8    9 2
    16    9   10 1
    17    9   24 1
    18   10   11 1
    19   11   15 1
    20   11   12 1
    21   11   25 1
    22   12   13 1
    23   12   26 1
    24   12   27 1
    25   13   14 1
    26   13   18 1
    27   13   28 1
    28   14   15 1
    29   14   17 1
    30   14   29 1
    31   15   16 1
    32   15   30 1
    33   16   31 1
    34   17   32 1
    35   18   19 1
    36   18   33 1
    37   18   34 1
    38   19   35 1
@<TRIPOS>MOLECULE
CHEMBL159059__2
   36    38     0     0     0
SMALL
USER_CHARGES

@<TRIPOS>ATOM
      1 C1         -0.0122    1.3489   -0.4740 C.ar      1 <0>        -0.2470
      2 C2          1.1834    2.0403   -0.5486 C.ar      1 <0>         0.2176
      3 N1          2.3419    1.4260   -0.4168 N.ar      1 <0>        -0.4918
      4 C3          2.4189    0.1193   -0.2064 C.ar      1 <0>         0.2591
      5 C4          1.2528   -0.6555   -0.1172 C.ar      1 <0>        -0.0203
      6 C5          0.0045   -0.0239   -0.2549 C.ar      1 <0>         0.3886
      7 N2         -1.1786   -0.7507   -0.1738 N.pl3     1 <0>        -0.7906
      8 N3          1.6382   -1.9382    0.0984 N.2       1 <0>        -0.4532
      9 C6          2.9367   -1.9987    0.1461 C.2       1 <0>         0.3136
     10 N4          3.4679   -0.7577   -0.0360 N.pl3     1 <0>        -0.4431
     11 C7          4.8929   -0.4179   -0.0487 C.3       1 <0>         0.1318
     12 C8          5.6193   -1.1703   -1.1912 C.3       1 <0>        -0.1306
     13 C9          5.8487   -2.5761   -0.5830 C.3       1 <0>        -0.0945
     14 C10         6.1882   -2.2977    0.8959 C.3       1 <0>         0.0748
     15 C11         5.5804   -0.9255    1.2356 C.3       1 <0>         0.0536
     16 O1          4.6193   -1.0619    2.2842 O.3       1 <0>        -0.5489
     17 O2          5.6138   -3.3071    1.7284 O.3       1 <0>        -0.5378
     18 C12         7.0182   -3.2760   -1.2782 C.3       1 <0>         0.0825
     19 O3          7.1370   -4.6111   -0.7826 O.3       1 <0>        -0.5643
     20 H1         -0.9511    1.8719   -0.5806 H         1 <0>         0.1864
     21 H2          1.1672    3.1066   -0.7189 H         1 <0>         0.2140
     22 H3         -2.0322   -0.3002   -0.2706 H         1 <0>         0.4252
     23 H4         -1.1502   -1.7081   -0.0205 H         1 <0>         0.4293
     24 H5          3.5094   -2.9002    0.3065 H         1 <0>         0.2393
     25 H6          5.0264    0.6588   -0.1529 H         1 <0>         0.1179
     26 H7          4.9870   -1.2311   -2.0770 H         1 <0>         0.0978
     27 H8          6.5698   -0.6912   -1.4260 H         1 <0>         0.1131
     28 H9          4.9429   -3.1775   -0.6598 H         1 <0>         0.1008
     29 H10         7.2693   -2.2713    1.0323 H         1 <0>         0.0802
     30 H11         6.3666   -0.2332    1.5368 H         1 <0>         0.0941
     31 H12         4.9905   -1.3780    3.1193 H         1 <0>         0.3930
     32 H13         5.7920   -3.1877    2.6713 H         1 <0>         0.3805
     33 H14         6.8390   -3.3021   -2.3531 H         1 <0>         0.0549
     34 H15         7.9400   -2.7303   -1.0767 H         1 <0>         0.0518
     35 H16         7.8600   -5.1154   -1.1803 H         1 <0>         0.3877
     36 H17         3.1601    1.9437   -0.4756 H         1 <0>         0.4345
@<TRIPOS>BOND
     1    1    6 ar
     2    1    2 ar
     3    1   20 1
     4    2    3 ar
     5    2   21 1
     6    3    4 ar
     7    3   36 1
     8    4   10 1
     9    4    5 ar
    10    5    6 ar
    11    5    8 1
    12    6    7 1
    13    7   22 1
    14    7   23 1
    15    8    9 2
    16    9   10 1
    17    9   24 1
    18   10   11 1
    19   11   15 1
    20   11   12 1
    21   11   25 1
    22   12   13 1
    23   12   26 1
    24   12   27 1
    25   13   14 1
    26   13   18 1
    27   13   28 1
    28   14   15 1
    29   14   17 1
    30   14   29 1
    31   15   16 1
    32   15   30 1
    33   16   31 1
    34   17   32 1
    35   18   19 1
    36   18   33 1
    37   18   34 1
    38   19   35 1
@<TRIPOS>MOLECULE
CHEMBL159059__3
   36    38     0     0     0
SMALL
USER_CHARGES

@<TRIPOS>ATOM
      1 C1         -0.0120    1.3474   -0.4836 C.ar      1 <0>        -0.2455
      2 C2          1.1837    2.0385   -0.5595 C.ar      1 <0>         0.2216
      3 N1          2.3422    1.4247   -0.4248 N.ar      1 <0>        -0.4922
      4 C3          2.4190    0.1187   -0.2101 C.ar      1 <0>         0.2615
      5 C4          1.2528   -0.6559   -0.1193 C.ar      1 <0>        -0.0223
      6 C5          0.0047   -0.0248   -0.2600 C.ar      1 <0>         0.3905
      7 N2         -1.1785   -0.7513   -0.1775 N.pl3     1 <0>        -0.7880
      8 N3          1.6381   -1.9378    0.1008 N.2       1 <0>        -0.4436
      9 C6          2.9366   -1.9981    0.1497 C.2       1 <0>         0.2910
     10 N4          3.4679   -0.7577   -0.0360 N.pl3     1 <0>        -0.4578
     11 C7          4.8929   -0.4179   -0.0487 C.3       1 <0>         0.1274
     12 C8          5.6193   -1.1703   -1.1912 C.3       1 <0>        -0.1243
     13 C9          5.8487   -2.5761   -0.5830 C.3       1 <0>        -0.0939
     14 C10         6.1882   -2.2977    0.8959 C.3       1 <0>         0.0753
     15 C11         5.5804   -0.9255    1.2356 C.3       1 <0>         0.0592
     16 O1          6.6111   -0.0178    1.6305 O.3       1 <0>        -0.5525
     17 O2          5.6138   -3.3071    1.7284 O.3       1 <0>        -0.5483
     18 C12         7.0182   -3.2760   -1.2782 C.3       1 <0>         0.0829
     19 O3          7.1370   -4.6111   -0.7826 O.3       1 <0>        -0.5648
     20 H1         -0.9508    1.8700   -0.5927 H         1 <0>         0.1883
     21 H2          1.1677    3.1043   -0.7333 H         1 <0>         0.2162
     22 H3         -2.0320   -0.3011   -0.2764 H         1 <0>         0.4264
     23 H4         -1.1502   -1.7082   -0.0210 H         1 <0>         0.4300
     24 H5          3.5092   -2.8991    0.3135 H         1 <0>         0.2443
     25 H6          5.0264    0.6588   -0.1529 H         1 <0>         0.1253
     26 H7          4.9870   -1.2311   -2.0770 H         1 <0>         0.0944
     27 H8          6.5698   -0.6912   -1.4260 H         1 <0>         0.1145
     28 H9          4.9429   -3.1775   -0.6598 H         1 <0>         0.1001
     29 H10         7.2693   -2.2713    1.0323 H         1 <0>         0.0856
     30 H11         4.8473   -1.0295    2.0355 H         1 <0>         0.0806
     31 H12         7.0816   -0.2820    2.4330 H         1 <0>         0.3994
     32 H13         5.7920   -3.1877    2.6713 H         1 <0>         0.3856
     33 H14         6.8390   -3.3021   -2.3531 H         1 <0>         0.0553
     34 H15         7.9400   -2.7303   -1.0767 H         1 <0>         0.0529
     35 H16         7.8600   -5.1154   -1.1803 H         1 <0>         0.3878
     36 H17         3.1604    1.9423   -0.4846 H         1 <0>         0.4373
@<TRIPOS>BOND
     1    1    6 ar
     2    1    2 ar
     3    1   20 1
     4    2    3 ar
     5    2   21 1
     6    3    4 ar
     7    3   36 1
     8    4   10 1
     9    4    5 ar
    10    5    6 ar
    11    5    8 1
    12    6    7 1
    13    7   22 1
    14    7   23 1
    15    8    9 2
    16    9   10 1
    17    9   24 1
    18   10   11 1
    19   11   15 1
    20   11   12 1
    21   11   25 1
    22   12   13 1
    23   12   26 1
    24   12   27 1
    25   13   14 1
    26   13   18 1
    27   13   28 1
    28   14   15 1
    29   14   17 1
    30   14   29 1
    31   15   16 1
    32   15   30 1
    33   16   31 1
    34   17   32 1
    35   18   19 1
    36   18   33 1
    37   18   34 1
    38   19   35 1
@<TRIPOS>MOLECULE
CHEMBL159059__4
   36    38     0     0     0
SMALL
USER_CHARGES

@<TRIPOS>ATOM
      1 C1         -0.0168    1.3861    0.0097 C.ar      1 <0>        -0.2461
      2 C2          1.1782    2.0824    0.0020 C.ar      1 <0>         0.2181
      3 N1          2.3382    1.4569   -0.0129 N.ar      1 <0>        -0.4926
      4 C3          2.4172    0.1336   -0.0208 C.ar      1 <0>         0.2530
      5 C4          1.2518   -0.6475   -0.0134 C.ar      1 <0>        -0.0189
      6 C5          0.0021   -0.0041    0.0020 C.ar      1 <0>         0.3879
      7 N2         -1.1804   -0.7364    0.0098 N.pl3     1 <0>        -0.7903
      8 N3          1.6393   -1.9475   -0.0242 N.2       1 <0>        -0.4572
      9 C6          2.9384   -2.0127   -0.0374 C.2       1 <0>         0.3260
     10 N4          3.4679   -0.7577   -0.0360 N.pl3     1 <0>        -0.4507
     11 C7          4.8929   -0.4179   -0.0487 C.3       1 <0>         0.1328
     12 C8          5.5949   -1.0706   -1.2654 C.3       1 <0>        -0.1254
     13 C9          7.0738   -1.1394   -0.8102 C.3       1 <0>        -0.0834
     14 C10         6.9921   -1.4912    0.6896 C.3       1 <0>         0.0825
     15 C11         5.6054   -1.0325    1.1737 C.3       1 <0>         0.0572
     16 O1          4.8625   -2.1513    1.6620 O.3       1 <0>        -0.5617
     17 O2          8.0151   -0.8016    1.4106 O.3       1 <0>        -0.5449
     18 C12         7.8197   -2.2334   -1.5769 C.3       1 <0>         0.0831
     19 O3          9.2046   -2.2011   -1.2262 O.3       1 <0>        -0.5643
     20 H1         -0.9567    1.9179    0.0260 H         1 <0>         0.1869
     21 H2          1.1605    3.1623    0.0080 H         1 <0>         0.2146
     22 H3         -2.0350   -0.2775    0.0208 H         1 <0>         0.4255
     23 H4         -1.1505   -1.7059    0.0043 H         1 <0>         0.4293
     24 H5          3.5127   -2.9273   -0.0481 H         1 <0>         0.2392
     25 H6          5.0260    0.6638   -0.0640 H         1 <0>         0.1228
     26 H7          5.2003   -2.0700   -1.4487 H         1 <0>         0.0957
     27 H8          5.4923   -0.4449   -2.1520 H         1 <0>         0.0970
     28 H9          7.5612   -0.1745   -0.9497 H         1 <0>         0.1068
     29 H10         7.0984   -2.5673    0.8270 H         1 <0>         0.0823
     30 H11         5.7128   -0.2838    1.9587 H         1 <0>         0.0850
     31 H12         5.2598   -2.5817    2.4314 H         1 <0>         0.3992
     32 H13         8.0163   -0.9817    2.3607 H         1 <0>         0.3826
     33 H14         7.4022   -3.2067   -1.3193 H         1 <0>         0.0505
     34 H15         7.7122   -2.0639   -2.6483 H         1 <0>         0.0551
     35 H16         9.7399   -2.8692   -1.6758 H         1 <0>         0.3873
     36 H17         3.1559    1.9787   -0.0185 H         1 <0>         0.4352
@<TRIPOS>BOND
     1    1    6 ar
     2    1    2 ar
     3    1   20 1
     4    2    3 ar
     5    2   21 1
     6    3    4 ar
     7    3   36 1
     8    4   10 1
     9    4    5 ar
    10    5    6 ar
    11    5    8 1
    12    6    7 1
    13    7   22 1
    14    7   23 1
    15    8    9 2
    16    9   10 1
    17    9   24 1
    18   10   11 1
    19   11   15 1
    20   11   12 1
    21   11   25 1
    22   12   13 1
    23   12   26 1
    24   12   27 1
    25   13   14 1
    26   13   18 1
    27   13   28 1
    28   14   15 1
    29   14   17 1
    30   14   29 1
    31   15   16 1
    32   15   30 1
    33   16   31 1
    34   17   32 1
    35   18   19 1
    36   18   33 1
    37   18   34 1
    38   19   35 1
@<TRIPOS>MOLECULE
CHEMBL159059__5
   36    38     0     0     0
SMALL
USER_CHARGES

@<TRIPOS>ATOM
      1 C1         -0.0168    1.3861    0.0097 C.ar      1 <0>        -0.2465
      2 C2          1.1782    2.0824    0.0020 C.ar      1 <0>         0.2230
      3 N1          2.3382    1.4569   -0.0129 N.ar      1 <0>        -0.4914
      4 C3          2.4172    0.1336   -0.0208 C.ar      1 <0>         0.2697
      5 C4          1.2518   -0.6475   -0.0134 C.ar      1 <0>        -0.0251
      6 C5          0.0021   -0.0041    0.0020 C.ar      1 <0>         0.3904
      7 N2         -1.1804   -0.7364    0.0098 N.pl3     1 <0>        -0.7893
      8 N3          1.6393   -1.9475   -0.0242 N.2       1 <0>        -0.4423
      9 C6          2.9384   -2.0127   -0.0374 C.2       1 <0>         0.2837
     10 N4          3.4679   -0.7577   -0.0360 N.pl3     1 <0>        -0.4569
     11 C7          4.8929   -0.4179   -0.0487 C.3       1 <0>         0.1301
     12 C8          5.6084   -1.0971   -1.2428 C.3       1 <0>        -0.1236
     13 C9          7.0851   -1.1762   -0.8036 C.3       1 <0>        -0.0859
     14 C10         7.0890   -1.1349    0.7346 C.3       1 <0>         0.0828
     15 C11         5.6146   -1.0321    1.1764 C.3       1 <0>         0.0574
     16 O1          5.4914   -0.1731    2.3118 O.3       1 <0>        -0.5537
     17 O2          7.8177    0.0062    1.1918 O.3       1 <0>        -0.5420
     18 C12         7.7085   -2.4845   -1.2943 C.3       1 <0>         0.0810
     19 O3          9.1031   -2.4937   -0.9831 O.3       1 <0>        -0.5677
     20 H1         -0.9567    1.9179    0.0260 H         1 <0>         0.1882
     21 H2          1.1605    3.1623    0.0080 H         1 <0>         0.2159
     22 H3         -2.0350   -0.2775    0.0208 H         1 <0>         0.4262
     23 H4         -1.1505   -1.7059    0.0043 H         1 <0>         0.4293
     24 H5          3.5127   -2.9273   -0.0481 H         1 <0>         0.2384
     25 H6          5.0305    0.6630   -0.0763 H         1 <0>         0.1258
     26 H7          5.2062   -2.0962   -1.4104 H         1 <0>         0.0934
     27 H8          5.5100   -0.4893   -2.1423 H         1 <0>         0.0997
     28 H9          7.6391   -0.3259   -1.2013 H         1 <0>         0.1099
     29 H10         7.5350   -2.0468    1.1315 H         1 <0>         0.0819
     30 H11         5.2134   -2.0207    1.3995 H         1 <0>         0.0846
     31 H12         5.9254   -0.5090    3.1080 H         1 <0>         0.3945
     32 H13         7.8564    0.0883    2.1545 H         1 <0>         0.3824
     33 H14         7.2209   -3.3262   -0.8025 H         1 <0>         0.0506
     34 H15         7.5764   -2.5677   -2.3731 H         1 <0>         0.0581
     35 H16         9.5639   -3.2955   -1.2659 H         1 <0>         0.3895
     36 H17         3.1559    1.9787   -0.0185 H         1 <0>         0.4381
@<TRIPOS>BOND
     1    1    6 ar
     2    1    2 ar
     3    1   20 1
     4    2    3 ar
     5    2   21 1
     6    3    4 ar
     7    3   36 1
     8    4   10 1
     9    4    5 ar
    10    5    6 ar
    11    5    8 1
    12    6    7 1
    13    7   22 1
    14    7   23 1
    15    8    9 2
    16    9   10 1
    17    9   24 1
    18   10   11 1
    19   11   15 1
    20   11   12 1
    21   11   25 1
    22   12   13 1
    23   12   26 1
    24   12   27 1
    25   13   14 1
    26   13   18 1
    27   13   28 1
    28   14   15 1
    29   14   17 1
    30   14   29 1
    31   15   16 1
    32   15   30 1
    33   16   31 1
    34   17   32 1
    35   18   19 1
    36   18   33 1
    37   18   34 1
    38   19   35 1
@<TRIPOS>MOLECULE
CHEMBL159059__6
   36    38     0     0     0
SMALL
USER_CHARGES

@<TRIPOS>ATOM
      1 C1         -0.0168    1.3861    0.0097 C.ar      1 <0>        -0.2468
      2 C2          1.1782    2.0824    0.0020 C.ar      1 <0>         0.2168
      3 N1          2.3382    1.4569   -0.0129 N.ar      1 <0>        -0.4923
      4 C3          2.4172    0.1336   -0.0208 C.ar      1 <0>         0.2543
      5 C4          1.2518   -0.6475   -0.0134 C.ar      1 <0>        -0.0189
      6 C5          0.0021   -0.0041    0.0020 C.ar      1 <0>         0.3875
      7 N2         -1.1804   -0.7364    0.0098 N.pl3     1 <0>        -0.7911
      8 N3          1.6393   -1.9475   -0.0242 N.2       1 <0>        -0.4581
      9 C6          2.9384   -2.0127   -0.0374 C.2       1 <0>         0.3276
     10 N4          3.4679   -0.7577   -0.0360 N.pl3     1 <0>        -0.4448
     11 C7          4.8929   -0.4179   -0.0487 C.3       1 <0>         0.1352
     12 C8          5.5693   -1.0232   -1.2961 C.3       1 <0>        -0.1288
     13 C9          6.9684   -1.4599   -0.7953 C.3       1 <0>        -0.0809
     14 C10         6.6705   -1.9948    0.6275 C.3       1 <0>         0.0777
     15 C11         5.5930   -1.0357    1.1743 C.3       1 <0>         0.0561
     16 O1          4.6485   -1.7602    1.9649 O.3       1 <0>        -0.5543
     17 O2          6.1657   -3.3302    0.5642 O.3       1 <0>        -0.5435
     18 C12         7.5404   -2.5676   -1.6822 C.3       1 <0>         0.0874
     19 O3          8.8747   -2.8680   -1.2682 O.3       1 <0>        -0.5731
     20 H1         -0.9567    1.9179    0.0260 H         1 <0>         0.1862
     21 H2          1.1605    3.1623    0.0080 H         1 <0>         0.2137
     22 H3         -2.0350   -0.2775    0.0208 H         1 <0>         0.4251
     23 H4         -1.1505   -1.7059    0.0043 H         1 <0>         0.4291
     24 H5          3.5127   -2.9273   -0.0481 H         1 <0>         0.2377
     25 H6          5.0183    0.6648   -0.0434 H         1 <0>         0.1141
     26 H7          5.0064   -1.8848   -1.6550 H         1 <0>         0.0952
     27 H8          5.6623   -0.2730   -2.0814 H         1 <0>         0.0942
     28 H9          7.6470   -0.6080   -0.7534 H         1 <0>         0.1062
     29 H10         7.5671   -1.9538    1.2460 H         1 <0>         0.0838
     30 H11         6.0590   -0.2529    1.7728 H         1 <0>         0.0894
     31 H12         5.0293   -2.1739    2.7517 H         1 <0>         0.3954
     32 H13         5.9620   -3.7150    1.4277 H         1 <0>         0.3838
     33 H14         6.9222   -3.4609   -1.5921 H         1 <0>         0.0647
     34 H15         7.5482   -2.2344   -2.7200 H         1 <0>         0.0481
     35 H16         9.3006   -3.5634   -1.7880 H         1 <0>         0.3890
     36 H17         3.1559    1.9787   -0.0185 H         1 <0>         0.4342
@<TRIPOS>BOND
     1    1    6 ar
     2    1    2 ar
     3    1   20 1
     4    2    3 ar
     5    2   21 1
     6    3    4 ar
     7    3   36 1
     8    4   10 1
     9    4    5 ar
    10    5    6 ar
    11    5    8 1
    12    6    7 1
    13    7   22 1
    14    7   23 1
    15    8    9 2
    16    9   10 1
    17    9   24 1
    18   10   11 1
    19   11   15 1
    20   11   12 1
    21   11   25 1
    22   12   13 1
    23   12   26 1
    24   12   27 1
    25   13   14 1
    26   13   18 1
    27   13   28 1
    28   14   15 1
    29   14   17 1
    30   14   29 1
    31   15   16 1
    32   15   30 1
    33   16   31 1
    34   17   32 1
    35   18   19 1
    36   18   33 1
    37   18   34 1
    38   19   35 1
@<TRIPOS>MOLECULE
CHEMBL159059__7
   36    38     0     0     0
SMALL
USER_CHARGES

@<TRIPOS>ATOM
      1 C1         -0.0168    1.3861    0.0097 C.ar      1 <0>        -0.2459
      2 C2          1.1782    2.0824    0.0020 C.ar      1 <0>         0.2222
      3 N1          2.3382    1.4569   -0.0129 N.ar      1 <0>        -0.4921
      4 C3          2.4172    0.1336   -0.0208 C.ar      1 <0>         0.2633
      5 C4          1.2518   -0.6475   -0.0134 C.ar      1 <0>        -0.0237
      6 C5          0.0021   -0.0041    0.0020 C.ar      1 <0>         0.3902
      7 N2         -1.1804   -0.7364    0.0098 N.pl3     1 <0>        -0.7887
      8 N3          1.6393   -1.9475   -0.0242 N.2       1 <0>        -0.4442
      9 C6          2.9384   -2.0127   -0.0374 C.2       1 <0>         0.2905
     10 N4          3.4679   -0.7577   -0.0360 N.pl3     1 <0>        -0.4599
     11 C7          4.8929   -0.4179   -0.0487 C.3       1 <0>         0.1318
     12 C8          5.5693   -1.0232   -1.2961 C.3       1 <0>        -0.1250
     13 C9          6.9684   -1.4599   -0.7953 C.3       1 <0>        -0.0776
     14 C10         6.6705   -1.9948    0.6275 C.3       1 <0>         0.0796
     15 C11         5.5930   -1.0357    1.1743 C.3       1 <0>         0.0601
     16 O1          6.2039   -0.0094    1.9589 O.3       1 <0>        -0.5549
     17 O2          6.1657   -3.3302    0.5642 O.3       1 <0>        -0.5513
     18 C12         7.5404   -2.5676   -1.6822 C.3       1 <0>         0.0862
     19 O3          8.8747   -2.8680   -1.2682 O.3       1 <0>        -0.5725
     20 H1         -0.9567    1.9179    0.0260 H         1 <0>         0.1883
     21 H2          1.1605    3.1623    0.0080 H         1 <0>         0.2161
     22 H3         -2.0350   -0.2775    0.0208 H         1 <0>         0.4264
     23 H4         -1.1505   -1.7059    0.0043 H         1 <0>         0.4296
     24 H5          3.5127   -2.9273   -0.0481 H         1 <0>         0.2424
     25 H6          5.0183    0.6648   -0.0434 H         1 <0>         0.1217
     26 H7          5.0064   -1.8848   -1.6550 H         1 <0>         0.0949
     27 H8          5.6623   -0.2730   -2.0814 H         1 <0>         0.0956
     28 H9          7.6470   -0.6080   -0.7534 H         1 <0>         0.1078
     29 H10         7.5671   -1.9538    1.2460 H         1 <0>         0.0869
     30 H11         4.8725   -1.5884    1.7774 H         1 <0>         0.0775
     31 H12         6.6622   -0.3358    2.7454 H         1 <0>         0.3992
     32 H13         5.9620   -3.7150    1.4277 H         1 <0>         0.3864
     33 H14         6.9222   -3.4609   -1.5921 H         1 <0>         0.0643
     34 H15         7.5482   -2.2344   -2.7200 H         1 <0>         0.0483
     35 H16         9.3006   -3.5634   -1.7880 H         1 <0>         0.3887
     36 H17         3.1559    1.9787   -0.0185 H         1 <0>         0.4377
@<TRIPOS>BOND
     1    1    6 ar
     2    1    2 ar
     3    1   20 1
     4    2    3 ar
     5    2   21 1
     6    3    4 ar
     7    3   36 1
     8    4   10 1
     9    4    5 ar
    10    5    6 ar
    11    5    8 1
    12    6    7 1
    13    7   22 1
    14    7   23 1
    15    8    9 2
    16    9   10 1
    17    9   24 1
    18   10   11 1
    19   11   15 1
    20   11   12 1
    21   11   25 1
    22   12   13 1
    23   12   26 1
    24   12   27 1
    25   13   14 1
    26   13   18 1
    27   13   28 1
    28   14   15 1
    29   14   17 1
    30   14   29 1
    31   15   16 1
    32   15   30 1
    33   16   31 1
    34   17   32 1
    35   18   19 1
    36   18   33 1
    37   18   34 1
    38   19   35 1
@<TRIPOS>MOLECULE
CHEMBL159059__8
   36    38     0     0     0
SMALL
USER_CHARGES

@<TRIPOS>ATOM
      1 C1         -0.0168    1.3861    0.0097 C.ar      1 <0>        -0.2461
      2 C2          1.1782    2.0824    0.0020 C.ar      1 <0>         0.2226
      3 N1          2.3382    1.4569   -0.0129 N.ar      1 <0>        -0.4917
      4 C3          2.4172    0.1336   -0.0208 C.ar      1 <0>         0.2669
      5 C4          1.2518   -0.6475   -0.0134 C.ar      1 <0>        -0.0244
      6 C5          0.0021   -0.0041    0.0020 C.ar      1 <0>         0.3905
      7 N2         -1.1804   -0.7364    0.0098 N.pl3     1 <0>        -0.7888
      8 N3          1.6393   -1.9475   -0.0242 N.2       1 <0>        -0.4426
      9 C6          2.9384   -2.0127   -0.0374 C.2       1 <0>         0.2868
     10 N4          3.4679   -0.7577   -0.0360 N.pl3     1 <0>        -0.4586
     11 C7          4.8929   -0.4179   -0.0487 C.3       1 <0>         0.1300
     12 C8          5.6194   -1.0829    1.1467 C.3       1 <0>        -0.1243
     13 C9          7.0888   -1.1469    0.6609 C.3       1 <0>        -0.0806
     14 C10         6.9765   -1.4834   -0.8404 C.3       1 <0>         0.0822
     15 C11         5.5803   -1.0199   -1.2916 C.3       1 <0>         0.0578
     16 O1          5.7003   -0.0280   -2.3133 O.3       1 <0>        -0.5610
     17 O2          7.1121   -2.8922   -1.0377 O.3       1 <0>        -0.5471
     18 C12         7.8500   -2.2485    1.4012 C.3       1 <0>         0.0902
     19 O3          9.2275   -2.2126    1.0227 O.3       1 <0>        -0.5701
     20 H1         -0.9567    1.9179    0.0260 H         1 <0>         0.1883
     21 H2          1.1605    3.1623    0.0080 H         1 <0>         0.2161
     22 H3         -2.0350   -0.2775    0.0208 H         1 <0>         0.4264
     23 H4         -1.1505   -1.7059    0.0043 H         1 <0>         0.4295
     24 H5          3.5127   -2.9273   -0.0481 H         1 <0>         0.2400
     25 H6          5.0264    0.6636   -0.0252 H         1 <0>         0.1241
     26 H7          5.5349   -0.4663    2.0415 H         1 <0>         0.0973
     27 H8          5.2285   -2.0841    1.3279 H         1 <0>         0.0960
     28 H9          7.5790   -0.1834    0.8003 H         1 <0>         0.1044
     29 H10         7.7456   -0.9518   -1.4007 H         1 <0>         0.0845
     30 H11         5.0062   -1.8696   -1.6611 H         1 <0>         0.0835
     31 H12         6.1253   -0.3455   -3.1217 H         1 <0>         0.3977
     32 H13         7.0505   -3.1676   -1.9627 H         1 <0>         0.3835
     33 H14         7.7643   -2.0900    2.4762 H         1 <0>         0.0471
     34 H15         7.4272   -3.2192    1.1422 H         1 <0>         0.0642
     35 H16         9.7717   -2.8851    1.4546 H         1 <0>         0.3878
     36 H17         3.1559    1.9787   -0.0185 H         1 <0>         0.4378
@<TRIPOS>BOND
     1    1    6 ar
     2    1    2 ar
     3    1   20 1
     4    2    3 ar
     5    2   21 1
     6    3    4 ar
     7    3   36 1
     8    4   10 1
     9    4    5 ar
    10    5    6 ar
    11    5    8 1
    12    6    7 1
    13    7   22 1
    14    7   23 1
    15    8    9 2
    16    9   10 1
    17    9   24 1
    18   10   11 1
    19   11   15 1
    20   11   12 1
    21   11   25 1
    22   12   13 1
    23   12   26 1
    24   12   27 1
    25   13   14 1
    26   13   18 1
    27   13   28 1
    28   14   15 1
    29   14   17 1
    30   14   29 1
    31   15   16 1
    32   15   30 1
    33   16   31 1
    34   17   32 1
    35   18   19 1
    36   18   33 1
    37   18   34 1
    38   19   35 1
@<TRIPOS>MOLECULE
CHEMBL159059__9
   36    38     0     0     0
SMALL
USER_CHARGES

@<TRIPOS>ATOM
      1 C1         -0.0168    1.3861    0.0097 C.ar      1 <0>        -0.2462
      2 C2          1.1782    2.0824    0.0020 C.ar      1 <0>         0.2173
      3 N1          2.3382    1.4569   -0.0129 N.ar      1 <0>        -0.4924
      4 C3          2.4172    0.1336   -0.0208 C.ar      1 <0>         0.2514
      5 C4          1.2518   -0.6475   -0.0134 C.ar      1 <0>        -0.0186
      6 C5          0.0021   -0.0041    0.0020 C.ar      1 <0>         0.3877
      7 N2         -1.1804   -0.7364    0.0098 N.pl3     1 <0>        -0.7904
      8 N3          1.6393   -1.9475   -0.0242 N.2       1 <0>        -0.4586
      9 C6          2.9384   -2.0127   -0.0374 C.2       1 <0>         0.3292
     10 N4          3.4679   -0.7577   -0.0360 N.pl3     1 <0>        -0.4494
     11 C7          4.8929   -0.4179   -0.0487 C.3       1 <0>         0.1308
     12 C8          5.6194   -1.0829    1.1467 C.3       1 <0>        -0.1261
     13 C9          7.0888   -1.1469    0.6609 C.3       1 <0>        -0.0818
     14 C10         6.9765   -1.4834   -0.8404 C.3       1 <0>         0.0815
     15 C11         5.5803   -1.0199   -1.2916 C.3       1 <0>         0.0580
     16 O1          4.8276   -2.1338   -1.7760 O.3       1 <0>        -0.5507
     17 O2          7.1121   -2.8922   -1.0377 O.3       1 <0>        -0.5357
     18 C12         7.8500   -2.2485    1.4012 C.3       1 <0>         0.0912
     19 O3          9.2275   -2.2126    1.0227 O.3       1 <0>        -0.5710
     20 H1         -0.9567    1.9179    0.0260 H         1 <0>         0.1866
     21 H2          1.1605    3.1623    0.0080 H         1 <0>         0.2143
     22 H3         -2.0350   -0.2775    0.0208 H         1 <0>         0.4254
     23 H4         -1.1505   -1.7059    0.0043 H         1 <0>         0.4293
     24 H5          3.5127   -2.9273   -0.0481 H         1 <0>         0.2402
     25 H6          5.0264    0.6636   -0.0252 H         1 <0>         0.1210
     26 H7          5.5349   -0.4663    2.0415 H         1 <0>         0.0926
     27 H8          5.2285   -2.0841    1.3279 H         1 <0>         0.0961
     28 H9          7.5790   -0.1834    0.8003 H         1 <0>         0.1024
     29 H10         7.7456   -0.9518   -1.4007 H         1 <0>         0.0793
     30 H11         5.6718   -0.2633   -2.0709 H         1 <0>         0.0807
     31 H12         5.2091   -2.5563   -2.5577 H         1 <0>         0.3946
     32 H13         7.0505   -3.1676   -1.9627 H         1 <0>         0.3784
     33 H14         7.7643   -2.0900    2.4762 H         1 <0>         0.0459
     34 H15         7.4272   -3.2192    1.1422 H         1 <0>         0.0646
     35 H16         9.7717   -2.8851    1.4546 H         1 <0>         0.3877
     36 H17         3.1559    1.9787   -0.0185 H         1 <0>         0.4346
@<TRIPOS>BOND
     1    1    6 ar
     2    1    2 ar
     3    1   20 1
     4    2    3 ar
     5    2   21 1
     6    3    4 ar
     7    3   36 1
     8    4   10 1
     9    4    5 ar
    10    5    6 ar
    11    5    8 1
    12    6    7 1
    13    7   22 1
    14    7   23 1
    15    8    9 2
    16    9   10 1
    17    9   24 1
    18   10   11 1
    19   11   15 1
    20   11   12 1
    21   11   25 1
    22   12   13 1
    23   12   26 1
    24   12   27 1
    25   13   14 1
    26   13   18 1
    27   13   28 1
    28   14   15 1
    29   14   17 1
    30   14   29 1
    31   15   16 1
    32   15   30 1
    33   16   31 1
    34   17   32 1
    35   18   19 1
    36   18   33 1
    37   18   34 1
    38   19   35 1
@<TRIPOS>MOLECULE
CHEMBL159059__10
   36    38     0     0     0
SMALL
USER_CHARGES

@<TRIPOS>ATOM
      1 C1         -0.0168    1.3861    0.0097 C.ar      1 <0>        -0.2461
      2 C2          1.1782    2.0824    0.0020 C.ar      1 <0>         0.2232
      3 N1          2.3382    1.4569   -0.0129 N.ar      1 <0>        -0.4918
      4 C3          2.4172    0.1336   -0.0208 C.ar      1 <0>         0.2685
      5 C4          1.2518   -0.6475   -0.0134 C.ar      1 <0>        -0.0248
      6 C5          0.0021   -0.0041    0.0020 C.ar      1 <0>         0.3905
      7 N2         -1.1804   -0.7364    0.0098 N.pl3     1 <0>        -0.7888
      8 N3          1.6393   -1.9475   -0.0242 N.2       1 <0>        -0.4418
      9 C6          2.9384   -2.0127   -0.0374 C.2       1 <0>         0.2837
     10 N4          3.4679   -0.7577   -0.0360 N.pl3     1 <0>        -0.4593
     11 C7          4.8929   -0.4179   -0.0487 C.3       1 <0>         0.1298
     12 C8          5.6194   -1.0829    1.1467 C.3       1 <0>        -0.1233
     13 C9          7.0888   -1.1469    0.6609 C.3       1 <0>        -0.0838
     14 C10         6.9765   -1.4834   -0.8404 C.3       1 <0>         0.0829
     15 C11         5.5803   -1.0199   -1.2916 C.3       1 <0>         0.0566
     16 O1          5.7003   -0.0280   -2.3133 O.3       1 <0>        -0.5499
     17 O2          7.9848   -0.7864   -1.5750 O.3       1 <0>        -0.5329
     18 C12         7.8500   -2.2485    1.4012 C.3       1 <0>         0.0825
     19 O3          9.2275   -2.2126    1.0227 O.3       1 <0>        -0.5635
     20 H1         -0.9567    1.9179    0.0260 H         1 <0>         0.1884
     21 H2          1.1605    3.1623    0.0080 H         1 <0>         0.2162
     22 H3         -2.0350   -0.2775    0.0208 H         1 <0>         0.4264
     23 H4         -1.1505   -1.7059    0.0043 H         1 <0>         0.4294
     24 H5          3.5127   -2.9273   -0.0481 H         1 <0>         0.2392
     25 H6          5.0264    0.6636   -0.0252 H         1 <0>         0.1255
     26 H7          5.5349   -0.4663    2.0415 H         1 <0>         0.1011
     27 H8          5.2285   -2.0841    1.3279 H         1 <0>         0.0952
     28 H9          7.5790   -0.1834    0.8003 H         1 <0>         0.1084
     29 H10         7.0799   -2.5580   -0.9909 H         1 <0>         0.0781
     30 H11         5.0062   -1.8696   -1.6611 H         1 <0>         0.0787
     31 H12         6.1253   -0.3455   -3.1217 H         1 <0>         0.3929
     32 H13         7.9666   -0.9568   -2.5267 H         1 <0>         0.3777
     33 H14         7.7643   -2.0900    2.4762 H         1 <0>         0.0555
     34 H15         7.4272   -3.2192    1.1422 H         1 <0>         0.0500
     35 H16         9.7717   -2.8851    1.4546 H         1 <0>         0.3873
     36 H17         3.1559    1.9787   -0.0185 H         1 <0>         0.4383
@<TRIPOS>BOND
     1    1    6 ar
     2    1    2 ar
     3    1   20 1
     4    2    3 ar
     5    2   21 1
     6    3    4 ar
     7    3   36 1
     8    4   10 1
     9    4    5 ar
    10    5    6 ar
    11    5    8 1
    12    6    7 1
    13    7   22 1
    14    7   23 1
    15    8    9 2
    16    9   10 1
    17    9   24 1
    18   10   11 1
    19   11   15 1
    20   11   12 1
    21   11   25 1
    22   12   13 1
    23   12   26 1
    24   12   27 1
    25   13   14 1
    26   13   18 1
    27   13   28 1
    28   14   15 1
    29   14   17 1
    30   14   29 1
    31   15   16 1
    32   15   30 1
    33   16   31 1
    34   17   32 1
    35   18   19 1
    36   18   33 1
    37   18   34 1
    38   19   35 1
@<TRIPOS>MOLECULE
CHEMBL159059__11
   36    38     0     0     0
SMALL
USER_CHARGES

@<TRIPOS>ATOM
      1 C1         -0.0168    1.3861    0.0097 C.ar      1 <0>        -0.2461
      2 C2          1.1782    2.0824    0.0020 C.ar      1 <0>         0.2181
      3 N1          2.3382    1.4569   -0.0129 N.ar      1 <0>        -0.4926
      4 C3          2.4172    0.1336   -0.0208 C.ar      1 <0>         0.2530
      5 C4          1.2518   -0.6475   -0.0134 C.ar      1 <0>        -0.0189
      6 C5          0.0021   -0.0041    0.0020 C.ar      1 <0>         0.3879
      7 N2         -1.1804   -0.7364    0.0098 N.pl3     1 <0>        -0.7903
      8 N3          1.6393   -1.9475   -0.0242 N.2       1 <0>        -0.4572
      9 C6          2.9384   -2.0127   -0.0374 C.2       1 <0>         0.3260
     10 N4          3.4679   -0.7577   -0.0360 N.pl3     1 <0>        -0.4508
     11 C7          4.8929   -0.4179   -0.0487 C.3       1 <0>         0.1328
     12 C8          5.6194   -1.0829    1.1467 C.3       1 <0>        -0.1254
     13 C9          7.0888   -1.1469    0.6609 C.3       1 <0>        -0.0834
     14 C10         6.9765   -1.4834   -0.8404 C.3       1 <0>         0.0825
     15 C11         5.5803   -1.0199   -1.2916 C.3       1 <0>         0.0572
     16 O1          4.8276   -2.1338   -1.7760 O.3       1 <0>        -0.5617
     17 O2          7.9848   -0.7864   -1.5750 O.3       1 <0>        -0.5449
     18 C12         7.8500   -2.2485    1.4012 C.3       1 <0>         0.0831
     19 O3          9.2275   -2.2126    1.0227 O.3       1 <0>        -0.5643
     20 H1         -0.9567    1.9179    0.0260 H         1 <0>         0.1869
     21 H2          1.1605    3.1623    0.0080 H         1 <0>         0.2146
     22 H3         -2.0350   -0.2775    0.0208 H         1 <0>         0.4255
     23 H4         -1.1505   -1.7059    0.0043 H         1 <0>         0.4293
     24 H5          3.5127   -2.9273   -0.0481 H         1 <0>         0.2392
     25 H6          5.0264    0.6636   -0.0252 H         1 <0>         0.1228
     26 H7          5.5349   -0.4663    2.0415 H         1 <0>         0.0969
     27 H8          5.2285   -2.0841    1.3279 H         1 <0>         0.0957
     28 H9          7.5790   -0.1834    0.8003 H         1 <0>         0.1068
     29 H10         7.0799   -2.5580   -0.9909 H         1 <0>         0.0823
     30 H11         5.6718   -0.2633   -2.0709 H         1 <0>         0.0850
     31 H12         5.2091   -2.5563   -2.5577 H         1 <0>         0.3993
     32 H13         7.9666   -0.9568   -2.5267 H         1 <0>         0.3825
     33 H14         7.7643   -2.0900    2.4762 H         1 <0>         0.0551
     34 H15         7.4272   -3.2192    1.1422 H         1 <0>         0.0505
     35 H16         9.7717   -2.8851    1.4546 H         1 <0>         0.3873
     36 H17         3.1559    1.9787   -0.0185 H         1 <0>         0.4352
@<TRIPOS>BOND
     1    1    6 ar
     2    1    2 ar
     3    1   20 1
     4    2    3 ar
     5    2   21 1
     6    3    4 ar
     7    3   36 1
     8    4   10 1
     9    4    5 ar
    10    5    6 ar
    11    5    8 1
    12    6    7 1
    13    7   22 1
    14    7   23 1
    15    8    9 2
    16    9   10 1
    17    9   24 1
    18   10   11 1
    19   11   15 1
    20   11   12 1
    21   11   25 1
    22   12   13 1
    23   12   26 1
    24   12   27 1
    25   13   14 1
    26   13   18 1
    27   13   28 1
    28   14   15 1
    29   14   17 1
    30   14   29 1
    31   15   16 1
    32   15   30 1
    33   16   31 1
    34   17   32 1
    35   18   19 1
    36   18   33 1
    37   18   34 1
    38   19   35 1
@<TRIPOS>MOLECULE
CHEMBL159059__12
   36    38     0     0     0
SMALL
USER_CHARGES

@<TRIPOS>ATOM
      1 C1         -0.0168    1.3861    0.0097 C.ar      1 <0>        -0.2457
      2 C2          1.1782    2.0824    0.0020 C.ar      1 <0>         0.2223
      3 N1          2.3382    1.4569   -0.0129 N.ar      1 <0>        -0.4921
      4 C3          2.4172    0.1336   -0.0208 C.ar      1 <0>         0.2643
      5 C4          1.2518   -0.6475   -0.0134 C.ar      1 <0>        -0.0235
      6 C5          0.0021   -0.0041    0.0020 C.ar      1 <0>         0.3907
      7 N2         -1.1804   -0.7364    0.0098 N.pl3     1 <0>        -0.7881
      8 N3          1.6393   -1.9475   -0.0242 N.2       1 <0>        -0.4420
      9 C6          2.9384   -2.0127   -0.0374 C.2       1 <0>         0.2890
     10 N4          3.4679   -0.7577   -0.0360 N.pl3     1 <0>        -0.4606
     11 C7          4.8929   -0.4179   -0.0487 C.3       1 <0>         0.1306
     12 C8          5.5944   -1.0358    1.1784 C.3       1 <0>        -0.1269
     13 C9          6.1842   -2.3665    0.6488 C.3       1 <0>        -0.0887
     14 C10         6.6562   -1.9877   -0.7769 C.3       1 <0>         0.0798
     15 C11         5.5679   -1.0232   -1.2920 C.3       1 <0>         0.0553
     16 O1          6.1629    0.0111   -2.0783 O.3       1 <0>        -0.5587
     17 O2          6.7273   -3.1498   -1.6054 O.3       1 <0>        -0.5389
     18 C12         7.3663   -2.8163    1.5097 C.3       1 <0>         0.0843
     19 O3          7.8144   -4.1000    1.0701 O.3       1 <0>        -0.5612
     20 H1         -0.9567    1.9179    0.0260 H         1 <0>         0.1884
     21 H2          1.1605    3.1623    0.0080 H         1 <0>         0.2162
     22 H3         -2.0350   -0.2775    0.0208 H         1 <0>         0.4265
     23 H4         -1.1505   -1.7059    0.0043 H         1 <0>         0.4299
     24 H5          3.5127   -2.9273   -0.0481 H         1 <0>         0.2392
     25 H6          5.0183    0.6648   -0.0456 H         1 <0>         0.1241
     26 H7          6.3899   -0.3804    1.5332 H         1 <0>         0.1105
     27 H8          4.8738   -1.2275    1.9735 H         1 <0>         0.0971
     28 H9          5.4173   -3.1401    0.6091 H         1 <0>         0.1002
     29 H10         7.6231   -1.4861   -0.7380 H         1 <0>         0.0852
     30 H11         4.8353   -1.5697   -1.8858 H         1 <0>         0.0845
     31 H12         6.6050   -0.3072   -2.8772 H         1 <0>         0.3977
     32 H13         7.0178   -2.9706   -2.5102 H         1 <0>         0.3818
     33 H14         8.1789   -2.0960    1.4159 H         1 <0>         0.0507
     34 H15         7.0539   -2.8780    2.5522 H         1 <0>         0.0540
     35 H16         8.5638   -4.4483    1.5724 H         1 <0>         0.3864
     36 H17         3.1559    1.9787   -0.0185 H         1 <0>         0.4377
@<TRIPOS>BOND
     1    1    6 ar
     2    1    2 ar
     3    1   20 1
     4    2    3 ar
     5    2   21 1
     6    3    4 ar
     7    3   36 1
     8    4   10 1
     9    4    5 ar
    10    5    6 ar
    11    5    8 1
    12    6    7 1
    13    7   22 1
    14    7   23 1
    15    8    9 2
    16    9   10 1
    17    9   24 1
    18   10   11 1
    19   11   15 1
    20   11   12 1
    21   11   25 1
    22   12   13 1
    23   12   26 1
    24   12   27 1
    25   13   14 1
    26   13   18 1
    27   13   28 1
    28   14   15 1
    29   14   17 1
    30   14   29 1
    31   15   16 1
    32   15   30 1
    33   16   31 1
    34   17   32 1
    35   18   19 1
    36   18   33 1
    37   18   34 1
    38   19   35 1
@<TRIPOS>MOLECULE
CHEMBL159059__13
   36    38     0     0     0
SMALL
USER_CHARGES

@<TRIPOS>ATOM
      1 C1         -0.0168    1.3861    0.0097 C.ar      1 <0>        -0.2465
      2 C2          1.1782    2.0824    0.0020 C.ar      1 <0>         0.2170
      3 N1          2.3382    1.4569   -0.0129 N.ar      1 <0>        -0.4923
      4 C3          2.4172    0.1336   -0.0208 C.ar      1 <0>         0.2554
      5 C4          1.2518   -0.6475   -0.0134 C.ar      1 <0>        -0.0186
      6 C5          0.0021   -0.0041    0.0020 C.ar      1 <0>         0.3880
      7 N2         -1.1804   -0.7364    0.0098 N.pl3     1 <0>        -0.7905
      8 N3          1.6393   -1.9475   -0.0242 N.2       1 <0>        -0.4559
      9 C6          2.9384   -2.0127   -0.0374 C.2       1 <0>         0.3264
     10 N4          3.4679   -0.7577   -0.0360 N.pl3     1 <0>        -0.4454
     11 C7          4.8929   -0.4179   -0.0487 C.3       1 <0>         0.1346
     12 C8          5.5944   -1.0358    1.1784 C.3       1 <0>        -0.1330
     13 C9          6.1842   -2.3665    0.6488 C.3       1 <0>        -0.0862
     14 C10         6.6562   -1.9877   -0.7769 C.3       1 <0>         0.0796
     15 C11         5.5679   -1.0232   -1.2920 C.3       1 <0>         0.0534
     16 O1          4.6075   -1.7397   -2.0705 O.3       1 <0>        -0.5498
     17 O2          6.7273   -3.1498   -1.6054 O.3       1 <0>        -0.5319
     18 C12         7.3663   -2.8163    1.5097 C.3       1 <0>         0.0835
     19 O3          7.8144   -4.1000    1.0701 O.3       1 <0>        -0.5608
     20 H1         -0.9567    1.9179    0.0260 H         1 <0>         0.1864
     21 H2          1.1605    3.1623    0.0080 H         1 <0>         0.2139
     22 H3         -2.0350   -0.2775    0.0208 H         1 <0>         0.4252
     23 H4         -1.1505   -1.7059    0.0043 H         1 <0>         0.4294
     24 H5          3.5127   -2.9273   -0.0481 H         1 <0>         0.2345
     25 H6          5.0183    0.6648   -0.0456 H         1 <0>         0.1166
     26 H7          6.3899   -0.3804    1.5332 H         1 <0>         0.1083
     27 H8          4.8738   -1.2275    1.9735 H         1 <0>         0.0970
     28 H9          5.4173   -3.1401    0.6091 H         1 <0>         0.1006
     29 H10         7.6231   -1.4861   -0.7380 H         1 <0>         0.0794
     30 H11         6.0217   -0.2343   -1.8918 H         1 <0>         0.0844
     31 H12         4.9721   -2.1453   -2.8690 H         1 <0>         0.3966
     32 H13         7.0178   -2.9706   -2.5102 H         1 <0>         0.3789
     33 H14         8.1789   -2.0960    1.4159 H         1 <0>         0.0494
     34 H15         7.0539   -2.8780    2.5522 H         1 <0>         0.0526
     35 H16         8.5638   -4.4483    1.5724 H         1 <0>         0.3858
     36 H17         3.1559    1.9787   -0.0185 H         1 <0>         0.4342
@<TRIPOS>BOND
     1    1    6 ar
     2    1    2 ar
     3    1   20 1
     4    2    3 ar
     5    2   21 1
     6    3    4 ar
     7    3   36 1
     8    4   10 1
     9    4    5 ar
    10    5    6 ar
    11    5    8 1
    12    6    7 1
    13    7   22 1
    14    7   23 1
    15    8    9 2
    16    9   10 1
    17    9   24 1
    18   10   11 1
    19   11   15 1
    20   11   12 1
    21   11   25 1
    22   12   13 1
    23   12   26 1
    24   12   27 1
    25   13   14 1
    26   13   18 1
    27   13   28 1
    28   14   15 1
    29   14   17 1
    30   14   29 1
    31   15   16 1
    32   15   30 1
    33   16   31 1
    34   17   32 1
    35   18   19 1
    36   18   33 1
    37   18   34 1
    38   19   35 1
@<TRIPOS>MOLECULE
CHEMBL159059__14
   36    38     0     0     0
SMALL
USER_CHARGES

@<TRIPOS>ATOM
      1 C1         -0.0168    1.3861    0.0097 C.ar      1 <0>        -0.2460
      2 C2          1.1782    2.0824    0.0020 C.ar      1 <0>         0.2229
      3 N1          2.3382    1.4569   -0.0129 N.ar      1 <0>        -0.4922
      4 C3          2.4172    0.1336   -0.0208 C.ar      1 <0>         0.2654
      5 C4          1.2518   -0.6475   -0.0134 C.ar      1 <0>        -0.0243
      6 C5          0.0021   -0.0041    0.0020 C.ar      1 <0>         0.3908
      7 N2         -1.1804   -0.7364    0.0098 N.pl3     1 <0>        -0.7883
      8 N3          1.6393   -1.9475   -0.0242 N.2       1 <0>        -0.4416
      9 C6          2.9384   -2.0127   -0.0374 C.2       1 <0>         0.2849
     10 N4          3.4679   -0.7577   -0.0360 N.pl3     1 <0>        -0.4605
     11 C7          4.8929   -0.4179   -0.0487 C.3       1 <0>         0.1304
     12 C8          5.5944   -1.0358    1.1784 C.3       1 <0>        -0.1243
     13 C9          6.1842   -2.3665    0.6488 C.3       1 <0>        -0.0869
     14 C10         6.6562   -1.9877   -0.7769 C.3       1 <0>         0.0788
     15 C11         5.5679   -1.0232   -1.2920 C.3       1 <0>         0.0596
     16 O1          6.1629    0.0111   -2.0783 O.3       1 <0>        -0.5511
     17 O2          7.9238   -1.3300   -0.7258 O.3       1 <0>        -0.5391
     18 C12         7.3663   -2.8163    1.5097 C.3       1 <0>         0.0867
     19 O3          7.8144   -4.1000    1.0701 O.3       1 <0>        -0.5737
     20 H1         -0.9567    1.9179    0.0260 H         1 <0>         0.1884
     21 H2          1.1605    3.1623    0.0080 H         1 <0>         0.2162
     22 H3         -2.0350   -0.2775    0.0208 H         1 <0>         0.4265
     23 H4         -1.1505   -1.7059    0.0043 H         1 <0>         0.4297
     24 H5          3.5127   -2.9273   -0.0481 H         1 <0>         0.2379
     25 H6          5.0183    0.6648   -0.0456 H         1 <0>         0.1227
     26 H7          6.3899   -0.3804    1.5332 H         1 <0>         0.1108
     27 H8          4.8738   -1.2275    1.9735 H         1 <0>         0.0909
     28 H9          5.4173   -3.1401    0.6091 H         1 <0>         0.0991
     29 H10         6.7104   -2.8741   -1.4089 H         1 <0>         0.0839
     30 H11         4.8353   -1.5697   -1.8858 H         1 <0>         0.0797
     31 H12         6.6050   -0.3072   -2.8772 H         1 <0>         0.3953
     32 H13         8.2674   -1.0703   -1.5917 H         1 <0>         0.3844
     33 H14         8.1789   -2.0960    1.4159 H         1 <0>         0.0665
     34 H15         7.0539   -2.8780    2.5522 H         1 <0>         0.0489
     35 H16         8.5638   -4.4483    1.5724 H         1 <0>         0.3895
     36 H17         3.1559    1.9787   -0.0185 H         1 <0>         0.4380
@<TRIPOS>BOND
     1    1    6 ar
     2    1    2 ar
     3    1   20 1
     4    2    3 ar
     5    2   21 1
     6    3    4 ar
     7    3   36 1
     8    4   10 1
     9    4    5 ar
    10    5    6 ar
    11    5    8 1
    12    6    7 1
    13    7   22 1
    14    7   23 1
    15    8    9 2
    16    9   10 1
    17    9   24 1
    18   10   11 1
    19   11   15 1
    20   11   12 1
    21   11   25 1
    22   12   13 1
    23   12   26 1
    24   12   27 1
    25   13   14 1
    26   13   18 1
    27   13   28 1
    28   14   15 1
    29   14   17 1
    30   14   29 1
    31   15   16 1
    32   15   30 1
    33   16   31 1
    34   17   32 1
    35   18   19 1
    36   18   33 1
    37   18   34 1
    38   19   35 1
@<TRIPOS>MOLECULE
CHEMBL159059__15
   36    38     0     0     0
SMALL
USER_CHARGES

@<TRIPOS>ATOM
      1 C1         -0.0170    1.3862   -0.0094 C.ar      1 <0>        -0.2469
      2 C2          1.1780    2.0825   -0.0197 C.ar      1 <0>         0.2193
      3 N1          2.3380    1.4570   -0.0288 N.ar      1 <0>        -0.4924
      4 C3          2.4171    0.1336   -0.0281 C.ar      1 <0>         0.2628
      5 C4          1.2517   -0.6475   -0.0175 C.ar      1 <0>        -0.0214
      6 C5          0.0020   -0.0041   -0.0081 C.ar      1 <0>         0.3895
      7 N2         -1.1805   -0.7364    0.0026 N.pl3     1 <0>        -0.7901
      8 N3          1.6394   -1.9475   -0.0194 N.2       1 <0>        -0.4492
      9 C6          2.9385   -2.0127   -0.0302 C.2       1 <0>         0.3052
     10 N4          3.4679   -0.7577   -0.0360 N.pl3     1 <0>        -0.4429
     11 C7          4.8929   -0.4179   -0.0487 C.3       1 <0>         0.1322
     12 C8          5.5950   -0.9780    1.2132 C.3       1 <0>        -0.1295
     13 C9          5.8343   -2.4623    0.8408 C.3       1 <0>        -0.0922
     14 C10         6.2039   -2.4218   -0.6564 C.3       1 <0>         0.0756
     15 C11         5.6053   -1.1220   -1.2220 C.3       1 <0>         0.0559
     16 O1          4.6652   -1.4248   -2.2547 O.3       1 <0>        -0.5597
     17 O2          7.6246   -2.4138   -0.8098 O.3       1 <0>        -0.5451
     18 C12         6.9885   -3.0409    1.6618 C.3       1 <0>         0.0903
     19 O3          7.1151   -4.4376    1.3872 O.3       1 <0>        -0.5711
     20 H1         -0.9569    1.9179    0.0021 H         1 <0>         0.1869
     21 H2          1.1602    3.1623   -0.0207 H         1 <0>         0.2145
     22 H3         -2.0351   -0.2775    0.0093 H         1 <0>         0.4256
     23 H4         -1.1505   -1.7059    0.0033 H         1 <0>         0.4293
     24 H5          3.5128   -2.9274   -0.0341 H         1 <0>         0.2330
     25 H6          5.0260    0.6619   -0.1143 H         1 <0>         0.1182
     26 H7          6.5413   -0.4661    1.3879 H         1 <0>         0.1136
     27 H8          4.9448   -0.8983    2.0844 H         1 <0>         0.0943
     28 H9          4.9262   -3.0452    0.9940 H         1 <0>         0.0963
     29 H10         5.7774   -3.2836   -1.1697 H         1 <0>         0.0812
     30 H11         6.3985   -0.4851   -1.6135 H         1 <0>         0.0981
     31 H12         5.0526   -1.8691   -3.0213 H         1 <0>         0.3977
     32 H13         7.9207   -2.3888   -1.7301 H         1 <0>         0.3842
     33 H14         7.9150   -2.5326    1.3947 H         1 <0>         0.0660
     34 H15         6.7876   -2.8961    2.7233 H         1 <0>         0.0470
     35 H16         7.8291   -4.8711    1.8744 H         1 <0>         0.3884
     36 H17         3.1557    1.9788   -0.0365 H         1 <0>         0.4352
@<TRIPOS>BOND
     1    1    6 ar
     2    1    2 ar
     3    1   20 1
     4    2    3 ar
     5    2   21 1
     6    3    4 ar
     7    3   36 1
     8    4   10 1
     9    4    5 ar
    10    5    6 ar
    11    5    8 1
    12    6    7 1
    13    7   22 1
    14    7   23 1
    15    8    9 2
    16    9   10 1
    17    9   24 1
    18   10   11 1
    19   11   15 1
    20   11   12 1
    21   11   25 1
    22   12   13 1
    23   12   26 1
    24   12   27 1
    25   13   14 1
    26   13   18 1
    27   13   28 1
    28   14   15 1
    29   14   17 1
    30   14   29 1
    31   15   16 1
    32   15   30 1
    33   16   31 1
    34   17   32 1
    35   18   19 1
    36   18   33 1
    37   18   34 1
    38   19   35 1
@<TRIPOS>MOLECULE
CHEMBL301499
   30    32     0     0     0
SMALL
USER_CHARGES

@<TRIPOS>ATOM
      1 C1         -0.0158    1.3119    0.0093 C.ar      1 <0>         0.3673
      2 N1          1.0888    2.0360    0.0026 N.ar      1 <0>        -0.5929
      3 C2          2.2875    1.4625   -0.0119 C.ar      1 <0>         0.5102
      4 C3          2.3582    0.0588   -0.0202 C.ar      1 <0>        -0.1139
      5 C4          1.1547   -0.6659   -0.0126 C.ar      1 <0>         0.3076
      6 N2          0.0021   -0.0041    0.0020 N.ar      1 <0>        -0.5584
      7 N3          1.5110   -1.9908   -0.0227 N.pl3     1 <0>        -0.4656
      8 C5          2.8729   -2.0476   -0.0358 C.2       1 <0>         0.2442
      9 N4          3.3680   -0.8441   -0.0343 N.2       1 <0>        -0.4569
     10 C6          0.5956   -3.1347   -0.0195 C.3       1 <0>         0.1407
     11 H1         -0.4369   -2.7862    0.0048 H         1 <0>         0.1287
     12 C7          0.8786   -4.0345    1.2012 C.3       1 <0>        -0.1286
     13 C8          0.6662   -5.4737    0.6695 C.3       1 <0>        -0.1530
     14 C9          1.2489   -5.3981   -0.7636 C.3       1 <0>         0.0679
     15 H2          2.3351   -5.4856   -0.7389 H         1 <0>         0.0736
     16 C10         0.8302   -4.0010   -1.2694 C.3       1 <0>         0.1035
     17 H3          1.6251   -3.5704   -1.8783 H         1 <0>         0.0699
     18 O1         -0.3744   -4.0963   -2.0321 O.3       1 <0>        -0.5452
     19 O2          0.6847   -6.4203   -1.5875 O.3       1 <0>        -0.5582
     20 N5          3.4393    2.2295   -0.0193 N.pl3     1 <0>        -0.8171
     21 H4         -0.9693    1.8187    0.0257 H         1 <0>         0.2060
     22 H5          3.4551   -2.9572   -0.0459 H         1 <0>         0.2190
     23 H6          1.9049   -3.9017    1.5432 H         1 <0>         0.0827
     24 H7          0.1762   -3.8176    2.0060 H         1 <0>         0.0889
     25 H8          1.2181   -6.1940    1.2734 H         1 <0>         0.0817
     26 H9         -0.3946   -5.7229    0.6425 H         1 <0>         0.0885
     27 H10        -0.2911   -4.6304   -2.8339 H         1 <0>         0.3915
     28 H11         0.8692   -7.3188   -1.2812 H         1 <0>         0.3877
     29 H12         3.3774    3.1975   -0.0138 H         1 <0>         0.4111
     30 H13         4.3085    1.7992   -0.0299 H         1 <0>         0.4189
@<TRIPOS>BOND
     1    1    6 ar
     2    1    2 ar
     3    1   21 1
     4    2    3 ar
     5    3    4 ar
     6    3   20 1
     7    4    9 1
     8    4    5 ar
     9    5    6 ar
    10    5    7 1
    11    7    8 1
    12    7   10 1
    13    8    9 2
    14    8   22 1
    15   10   11 1
    16   10   16 1
    17   10   12 1
    18   12   13 1
    19   12   23 1
    20   12   24 1
    21   13   14 1
    22   13   25 1
    23   13   26 1
    24   14   15 1
    25   14   16 1
    26   14   19 1
    27   16   17 1
    28   16   18 1
    29   18   27 1
    30   19   28 1
    31   20   29 1
    32   20   30 1
@<TRIPOS>MOLECULE
CHEMBL45537
   26    27     0     0     0
SMALL
USER_CHARGES

@<TRIPOS>ATOM
      1 C1         -0.8411    1.1119    0.2729 C.ar      1 <0>         0.3654
      2 N1          0.1325    2.0038    0.3054 N.ar      1 <0>        -0.5934
      3 C2          1.4077    1.6324    0.2627 C.ar      1 <0>         0.5094
      4 C3          1.7033    0.2608    0.1816 C.ar      1 <0>        -0.1126
      5 C4          0.6322   -0.6478    0.1499 C.ar      1 <0>         0.3024
      6 N2         -0.6118   -0.1819    0.1973 N.ar      1 <0>        -0.5593
      7 N3          1.1970   -1.8957    0.0714 N.pl3     1 <0>        -0.4679
      8 C5          2.5501   -1.7316    0.0573 C.2       1 <0>         0.2509
      9 N4          2.8451   -0.4658    0.1220 N.2       1 <0>        -0.4619
     10 C6          0.4777   -3.1706    0.0139 C.3       1 <0>         0.1333
     11 C7          0.0985   -3.4695   -1.4137 C.2       1 <0>        -0.1699
     12 C8          0.4307   -4.6161   -1.9533 C.2       1 <0>        -0.1272
     13 C9          1.0516   -5.6962   -1.1054 C.3       1 <0>         0.0927
     14 O1          0.4493   -6.9534   -1.4193 O.3       1 <0>        -0.5669
     15 N5          2.4209    2.5743    0.2968 N.pl3     1 <0>        -0.8174
     16 H1         -1.8637    1.4570    0.3143 H         1 <0>         0.2053
     17 H2          3.2711   -2.5338    0.0007 H         1 <0>         0.2215
     18 H3          1.1181   -3.9666    0.3940 H         1 <0>         0.1071
     19 H4         -0.4237   -3.1071    0.6236 H         1 <0>         0.1060
     20 H5         -0.4472   -2.7385   -1.9918 H         1 <0>         0.1245
     21 H6          0.2596   -4.7872   -3.0058 H         1 <0>         0.1255
     22 H7          2.1218   -5.7457   -1.3064 H         1 <0>         0.0602
     23 H8          0.8900   -5.4689   -0.0517 H         1 <0>         0.0570
     24 H9          0.8013   -7.6962   -0.9100 H         1 <0>         0.3854
     25 H10         2.2041    3.5181    0.3525 H         1 <0>         0.4109
     26 H11         3.3480    2.2907    0.2650 H         1 <0>         0.4190
@<TRIPOS>BOND
     1    1    6 ar
     2    1    2 ar
     3    1   16 1
     4    2    3 ar
     5    3    4 ar
     6    3   15 1
     7    4    9 1
     8    4    5 ar
     9    5    6 ar
    10    5    7 1
    11    7    8 1
    12    7   10 1
    13    8    9 2
    14    8   17 1
    15   10   11 1
    16   10   18 1
    17   10   19 1
    18   11   12 2
    19   11   20 1
    20   12   13 1
    21   12   21 1
    22   13   14 1
    23   13   22 1
    24   13   23 1
    25   14   24 1
    26   15   25 1
    27   15   26 1
@<TRIPOS>MOLECULE
CHEMBL606276
   35    37     0     0     0
SMALL
USER_CHARGES

@<TRIPOS>ATOM
      1 C1         -0.0173    1.4248    0.0099 C.3       1 <0>         0.0446
      2 O1          0.0021   -0.0041    0.0020 O.3       1 <0>        -0.2472
      3 N1         -1.2835   -0.5976    0.0111 N.2       1 <0>        -0.3013
      4 C2         -1.4000   -1.8718    0.0054 C.2       1 <0>         0.0688
      5 C3         -2.7682   -2.5034    0.0150 C.3       1 <0>         0.1121
      6 H1         -2.8850   -3.1187    0.9071 H         1 <0>         0.1290
      7 C4         -2.9531   -3.3717   -1.2480 C.3       1 <0>         0.0539
      8 H2         -2.2778   -3.0513   -2.0413 H         1 <0>         0.0951
      9 C5         -4.4308   -3.0858   -1.6310 C.3       1 <0>         0.0765
     10 H3         -4.5880   -3.2012   -2.7035 H         1 <0>         0.1006
     11 C6         -4.5637   -1.6024   -1.2035 C.3       1 <0>         0.3209
     12 O2         -3.7742   -1.4840   -0.0072 O.3       1 <0>        -0.3435
     13 N2         -5.9642   -1.2781   -0.9214 N.pl3     1 <0>        -0.4613
     14 C7         -6.5648   -1.2925    0.3023 C.2       1 <0>         0.2864
     15 N3         -7.8154   -0.9514    0.1879 N.2       1 <0>        -0.4682
     16 C8         -8.0963   -0.6971   -1.1128 C.ar      1 <0>        -0.1036
     17 C9         -6.9105   -0.8984   -1.8395 C.ar      1 <0>         0.3067
     18 N4         -6.9183   -0.7064   -3.1544 N.ar      1 <0>        -0.5628
     19 C10        -8.0188   -0.3300   -3.7710 C.ar      1 <0>         0.3634
     20 N5         -9.1554   -0.1254   -3.1307 N.ar      1 <0>        -0.5923
     21 C11        -9.2462   -0.3009   -1.8163 C.ar      1 <0>         0.5082
     22 N6        -10.4415   -0.0829   -1.1538 N.pl3     1 <0>        -0.8175
     23 O3         -5.3252   -3.9183   -0.8901 O.3       1 <0>        -0.5349
     24 O4         -2.7601   -4.7552   -0.9467 O.3       1 <0>        -0.5425
     25 H4          1.0053    1.8021    0.0021 H         1 <0>         0.0993
     26 H5         -0.5445    1.7859   -0.8732 H         1 <0>         0.0518
     27 H6         -0.5275    1.7763    0.9067 H         1 <0>         0.0527
     28 H7         -0.5178   -2.4946   -0.0064 H         1 <0>         0.1332
     29 H8         -4.1724   -0.9478   -1.9823 H         1 <0>         0.1278
     30 H9         -6.0749   -1.5494    1.2299 H         1 <0>         0.2203
     31 H10        -7.9910   -0.1827   -4.8405 H         1 <0>         0.2049
     32 H11       -10.4924   -0.2034   -0.1927 H         1 <0>         0.4192
     33 H12       -11.2285    0.1904   -1.6507 H         1 <0>         0.4105
     34 H13        -5.2028   -4.8646   -1.0470 H         1 <0>         0.3952
     35 H14        -1.8750   -4.9668   -0.6198 H         1 <0>         0.3940
@<TRIPOS>BOND
     1    1    2 1
     2    1   25 1
     3    1   26 1
     4    1   27 1
     5    2    3 1
     6    3    4 2
     7    4    5 1
     8    4   28 1
     9    5    6 1
    10    5   12 1
    11    5    7 1
    12    7    8 1
    13    7    9 1
    14    7   24 1
    15    9   10 1
    16    9   11 1
    17    9   23 1
    18   11   12 1
    19   11   13 1
    20   11   29 1
    21   13   17 1
    22   13   14 1
    23   14   15 2
    24   14   30 1
    25   15   16 1
    26   16   21 ar
    27   16   17 ar
    28   17   18 ar
    29   18   19 ar
    30   19   20 ar
    31   19   31 1
    32   20   21 ar
    33   21   22 1
    34   22   32 1
    35   22   33 1
    36   23   34 1
    37   24   35 1
@<TRIPOS>MOLECULE
CHEMBL606276__1
   35    37     0     0     0
SMALL
USER_CHARGES

@<TRIPOS>ATOM
      1 C1         -0.0173    1.4248    0.0099 C.3       1 <0>         0.0440
      2 O1          0.0021   -0.0041    0.0020 O.3       1 <0>        -0.2449
      3 N1         -1.2835   -0.5976    0.0111 N.2       1 <0>        -0.3011
      4 C2         -1.4000   -1.8718    0.0054 C.2       1 <0>         0.0876
      5 C3         -2.7682   -2.5034    0.0150 C.3       1 <0>         0.1033
      6 H1         -2.8978   -3.1220    0.9031 H         1 <0>         0.1232
      7 C4         -2.9922   -3.3400   -1.2704 C.3       1 <0>         0.0535
      8 H2         -2.5387   -2.8545   -2.1344 H         1 <0>         0.0920
      9 C5         -4.5359   -3.3471   -1.3878 C.3       1 <0>         0.0814
     10 H3         -4.8400   -3.2243   -2.4272 H         1 <0>         0.0871
     11 C6         -4.9841   -2.1353   -0.5479 C.3       1 <0>         0.3135
     12 O2         -3.7958   -1.4916   -0.0541 O.3       1 <0>        -0.3383
     13 N2         -5.7462   -1.2044   -1.3838 N.pl3     1 <0>        -0.4742
     14 C7         -5.2508   -0.1138   -2.0346 C.2       1 <0>         0.2663
     15 N3         -6.2047    0.4875   -2.6844 N.2       1 <0>        -0.4603
     16 C8         -7.3696   -0.1769   -2.4924 C.ar      1 <0>        -0.1086
     17 C9         -7.0884   -1.2736   -1.6600 C.ar      1 <0>         0.3106
     18 N4         -8.0748   -2.0973   -1.3216 N.ar      1 <0>        -0.5536
     19 C10        -9.2992   -1.8937   -1.7604 C.ar      1 <0>         0.3666
     20 N5         -9.6109   -0.8797   -2.5467 N.ar      1 <0>        -0.5908
     21 C11        -8.6926    0.0012   -2.9306 C.ar      1 <0>         0.5094
     22 N6         -9.0287    1.0602   -3.7557 N.pl3     1 <0>        -0.8167
     23 O3         -5.0728   -4.5575   -0.8505 O.3       1 <0>        -0.5329
     24 O4         -2.4862   -4.6667   -1.1100 O.3       1 <0>        -0.5414
     25 H4          1.0053    1.8021    0.0021 H         1 <0>         0.0997
     26 H5         -0.5445    1.7859   -0.8732 H         1 <0>         0.0532
     27 H6         -0.5275    1.7763    0.9067 H         1 <0>         0.0531
     28 H7         -0.5178   -2.4946   -0.0064 H         1 <0>         0.1388
     29 H8         -5.5959   -2.4707    0.2895 H         1 <0>         0.1299
     30 H9         -4.2190    0.2044   -2.0138 H         1 <0>         0.2226
     31 H10       -10.0778   -2.5821   -1.4666 H         1 <0>         0.2069
     32 H11        -8.3474    1.6902   -4.0382 H         1 <0>         0.4192
     33 H12        -9.9457    1.1725   -4.0515 H         1 <0>         0.4114
     34 H13        -4.7759   -5.3563   -1.3073 H         1 <0>         0.3969
     35 H14        -1.5346   -4.7072   -0.9432 H         1 <0>         0.3928
@<TRIPOS>BOND
     1    1    2 1
     2    1   25 1
     3    1   26 1
     4    1   27 1
     5    2    3 1
     6    3    4 2
     7    4    5 1
     8    4   28 1
     9    5    6 1
    10    5   12 1
    11    5    7 1
    12    7    8 1
    13    7    9 1
    14    7   24 1
    15    9   10 1
    16    9   11 1
    17    9   23 1
    18   11   12 1
    19   11   13 1
    20   11   29 1
    21   13   17 1
    22   13   14 1
    23   14   15 2
    24   14   30 1
    25   15   16 1
    26   16   21 ar
    27   16   17 ar
    28   17   18 ar
    29   18   19 ar
    30   19   20 ar
    31   19   31 1
    32   20   21 ar
    33   21   22 1
    34   22   32 1
    35   22   33 1
    36   23   34 1
    37   24   35 1
@<TRIPOS>MOLECULE
CHEMBL50600
   31    32     0     0     0
SMALL
USER_CHARGES

@<TRIPOS>ATOM
      1 C1         -0.4852    1.8175    0.2079 C.ar      1 <0>        -0.2288
      2 C2          0.5671    2.6872    0.2700 C.ar      1 <0>         0.1571
      3 N1          1.8194    2.2589    0.2671 N.ar      1 <0>        -0.5619
      4 C3          2.1259    0.9740    0.2051 C.ar      1 <0>         0.4776
      5 C4          1.1061    0.0126    0.1393 C.ar      1 <0>        -0.0652
      6 C5         -0.2300    0.4498    0.1408 C.ar      1 <0>         0.1217
      7 N2         -1.0030   -0.6842    0.0690 N.pl3     1 <0>        -0.4785
      8 C6         -0.1558   -1.7506    0.0267 C.2       1 <0>         0.2404
      9 N3          1.0787   -1.3410    0.0689 N.2       1 <0>        -0.4696
     10 C7         -2.4669   -0.7368    0.0436 C.3       1 <0>         0.1313
     11 C8         -2.9515   -0.5567   -1.3720 C.2       1 <0>        -0.1494
     12 C9         -3.7770   -1.4276   -1.8975 C.2       1 <0>        -0.1143
     13 C10        -4.3753   -2.5120   -1.0388 C.3       1 <0>         0.1048
     14 O1         -5.7984   -2.4895   -1.1661 O.3       1 <0>        -0.5655
     15 C11        -4.1283   -1.3451   -3.3606 C.3       1 <0>         0.1150
     16 O2         -3.4404   -0.2422   -3.9542 O.3       1 <0>        -0.5729
     17 N4          3.4564    0.5764    0.2046 N.pl3     1 <0>        -0.8343
     18 H1         -1.5007    2.1853    0.2154 H         1 <0>         0.1291
     19 H2          0.3723    3.7483    0.3221 H         1 <0>         0.1616
     20 H3         -0.4637   -2.7842   -0.0318 H         1 <0>         0.2128
     21 H4         -2.8024   -1.7021    0.4225 H         1 <0>         0.1064
     22 H5         -2.8700    0.0593    0.6696 H         1 <0>         0.1016
     23 H6         -2.6182    0.2904   -1.9532 H         1 <0>         0.1366
     24 H7         -3.9968   -3.4817   -1.3621 H         1 <0>         0.0600
     25 H8         -4.1010   -2.3437    0.0026 H         1 <0>         0.0633
     26 H9         -6.2511   -3.1624   -0.6395 H         1 <0>         0.3863
     27 H10        -3.8319   -2.2686   -3.8581 H         1 <0>         0.0609
     28 H11        -5.2036   -1.2033   -3.4686 H         1 <0>         0.0665
     29 H12        -3.6198   -0.1284   -4.8976 H         1 <0>         0.3864
     30 H13         4.1613    1.2412    0.2498 H         1 <0>         0.4062
     31 H14         3.6809   -0.3662    0.1591 H         1 <0>         0.4146
@<TRIPOS>BOND
     1    1    6 ar
     2    1    2 ar
     3    1   18 1
     4    2    3 ar
     5    2   19 1
     6    3    4 ar
     7    4    5 ar
     8    4   17 1
     9    5    9 1
    10    5    6 ar
    11    6    7 1
    12    7    8 1
    13    7   10 1
    14    8    9 2
    15    8   20 1
    16   10   11 1
    17   10   21 1
    18   10   22 1
    19   11   12 2
    20   11   23 1
    21   12   13 1
    22   12   15 1
    23   13   14 1
    24   13   24 1
    25   13   25 1
    26   14   26 1
    27   15   16 1
    28   15   27 1
    29   15   28 1
    30   16   29 1
    31   17   30 1
    32   17   31 1
@<TRIPOS>MOLECULE
CHEMBL604863
   32    34     0     0     0
SMALL
USER_CHARGES

@<TRIPOS>ATOM
      1 C1         -0.0158    1.3119    0.0093 C.ar      1 <0>         0.3635
      2 N1          1.0888    2.0360    0.0026 N.ar      1 <0>        -0.5924
      3 C2          2.2875    1.4625   -0.0119 C.ar      1 <0>         0.5083
      4 C3          2.3582    0.0588   -0.0202 C.ar      1 <0>        -0.1032
      5 C4          1.1547   -0.6659   -0.0126 C.ar      1 <0>         0.3052
      6 N2          0.0021   -0.0041    0.0020 N.ar      1 <0>        -0.5629
      7 N3          1.5110   -1.9908   -0.0227 N.pl3     1 <0>        -0.4615
      8 C5          2.8729   -2.0476   -0.0358 C.2       1 <0>         0.2877
      9 N4          3.3680   -0.8441   -0.0343 N.2       1 <0>        -0.4684
     10 C6          0.5956   -3.1347   -0.0195 C.3       1 <0>         0.3209
     11 C7          0.2309   -3.5275    1.4343 C.3       1 <0>         0.0758
     12 H1         -0.6203   -2.9502    1.7954 H         1 <0>         0.1003
     13 C8         -0.1450   -5.0231    1.2500 C.3       1 <0>         0.0544
     14 H2         -1.1819   -5.1260    0.9301 H         1 <0>         0.0943
     15 C9          0.8217   -5.4685    0.1317 C.3       1 <0>         0.1137
     16 H3          1.6864   -5.9686    0.5679 H         1 <0>         0.1292
     17 O1          1.2430   -4.2928   -0.5698 O.3       1 <0>        -0.3443
     18 C10         0.1133   -6.4040   -0.8138 C.2       1 <0>         0.0663
     19 N5          0.0012   -6.0989   -2.0514 N.2       1 <0>        -0.2958
     20 O2         -0.6644   -6.9779   -2.9398 O.3       1 <0>        -0.4134
     21 O3          0.0892   -5.7582    2.4528 O.3       1 <0>        -0.5408
     22 O4          1.3547   -3.3815    2.3046 O.3       1 <0>        -0.5337
     23 N6          3.4393    2.2295   -0.0193 N.pl3     1 <0>        -0.8173
     24 H4         -0.9693    1.8187    0.0257 H         1 <0>         0.2050
     25 H5          3.4551   -2.9572   -0.0459 H         1 <0>         0.2201
     26 H6         -0.3049   -2.8993   -0.5867 H         1 <0>         0.1285
     27 H7         -0.2997   -7.3320   -0.4469 H         1 <0>         0.1324
     28 H8         -0.6989   -6.6622   -3.8532 H         1 <0>         0.4103
     29 H9         -0.1303   -6.6978    2.3886 H         1 <0>         0.3929
     30 H10         1.1727   -3.6163    3.2249 H         1 <0>         0.3950
     31 H11         3.3774    3.1975   -0.0138 H         1 <0>         0.4106
     32 H12         4.3085    1.7992   -0.0299 H         1 <0>         0.4193
@<TRIPOS>BOND
     1    1    6 ar
     2    1    2 ar
     3    1   24 1
     4    2    3 ar
     5    3    4 ar
     6    3   23 1
     7    4    9 1
     8    4    5 ar
     9    5    6 ar
    10    5    7 1
    11    7    8 1
    12    7   10 1
    13    8    9 2
    14    8   25 1
    15   10   17 1
    16   10   11 1
    17   10   26 1
    18   11   12 1
    19   11   13 1
    20   11   22 1
    21   13   14 1
    22   13   15 1
    23   13   21 1
    24   15   16 1
    25   15   17 1
    26   15   18 1
    27   18   19 2
    28   18   27 1
    29   19   20 1
    30   20   28 1
    31   21   29 1
    32   22   30 1
    33   23   31 1
    34   23   32 1
@<TRIPOS>MOLECULE
CHEMBL604863__1
   32    34     0     0     0
SMALL
USER_CHARGES

@<TRIPOS>ATOM
      1 C1         -0.0158    1.3119    0.0093 C.ar      1 <0>         0.3659
      2 N1          1.0888    2.0360    0.0026 N.ar      1 <0>        -0.5912
      3 C2          2.2875    1.4625   -0.0119 C.ar      1 <0>         0.5091
      4 C3          2.3582    0.0588   -0.0202 C.ar      1 <0>        -0.1095
      5 C4          1.1547   -0.6659   -0.0126 C.ar      1 <0>         0.3138
      6 N2          0.0021   -0.0041    0.0020 N.ar      1 <0>        -0.5498
      7 N3          1.5110   -1.9908   -0.0227 N.pl3     1 <0>        -0.4716
      8 C5          2.8729   -2.0476   -0.0358 C.2       1 <0>         0.2652
      9 N4          3.3680   -0.8441   -0.0343 N.2       1 <0>        -0.4604
     10 C6          0.5956   -3.1347   -0.0195 C.3       1 <0>         0.3135
     11 C7          0.2093   -3.5183   -1.4652 C.3       1 <0>         0.0801
     12 H1          0.9741   -3.1842   -2.1663 H         1 <0>         0.0871
     13 C8          0.1372   -5.0615   -1.4375 C.3       1 <0>         0.0531
     14 H2          0.8663   -5.4903   -2.1250 H         1 <0>         0.0896
     15 C9          0.4884   -5.4276    0.0216 C.3       1 <0>         0.1040
     16 H3         -0.4201   -5.5508    0.6111 H         1 <0>         0.1210
     17 O1          1.2558   -4.3054    0.5091 O.3       1 <0>        -0.3392
     18 C10         1.3139   -6.6878    0.0621 C.2       1 <0>         0.0855
     19 N5          2.4880   -6.6674    0.5702 N.2       1 <0>        -0.2952
     20 O2          3.2636   -7.8515    0.6083 O.3       1 <0>        -0.4106
     21 O3         -1.1805   -5.5071   -1.7652 O.3       1 <0>        -0.5368
     22 O4         -1.0609   -2.9610   -1.8087 O.3       1 <0>        -0.5251
     23 N6          3.4393    2.2295   -0.0193 N.pl3     1 <0>        -0.8171
     24 H4         -0.9693    1.8187    0.0257 H         1 <0>         0.2065
     25 H5          3.4551   -2.9572   -0.0459 H         1 <0>         0.2239
     26 H6         -0.2954   -2.9051    0.5649 H         1 <0>         0.1272
     27 H7          0.9144   -7.6081   -0.3378 H         1 <0>         0.1383
     28 H8          4.1357   -7.7377    1.0103 H         1 <0>         0.4113
     29 H9         -1.2824   -6.4687   -1.7627 H         1 <0>         0.3895
     30 H10        -1.3526   -3.1708   -2.7065 H         1 <0>         0.3920
     31 H11         3.3774    3.1975   -0.0138 H         1 <0>         0.4112
     32 H12         4.3085    1.7992   -0.0299 H         1 <0>         0.4191
@<TRIPOS>BOND
     1    1    6 ar
     2    1    2 ar
     3    1   24 1
     4    2    3 ar
     5    3    4 ar
     6    3   23 1
     7    4    9 1
     8    4    5 ar
     9    5    6 ar
    10    5    7 1
    11    7    8 1
    12    7   10 1
    13    8    9 2
    14    8   25 1
    15   10   17 1
    16   10   11 1
    17   10   26 1
    18   11   12 1
    19   11   13 1
    20   11   22 1
    21   13   14 1
    22   13   15 1
    23   13   21 1
    24   15   16 1
    25   15   17 1
    26   15   18 1
    27   18   19 2
    28   18   27 1
    29   19   20 1
    30   20   28 1
    31   21   29 1
    32   22   30 1
    33   23   31 1
    34   23   32 1
@<TRIPOS>MOLECULE
CHEMBL30511
   30    32     0     0     0
SMALL
USER_CHARGES

@<TRIPOS>ATOM
      1 C1         -0.0158    1.3119    0.0093 C.ar      1 <0>         0.3640
      2 N1          1.0888    2.0360    0.0026 N.ar      1 <0>        -0.5930
      3 C2          2.2875    1.4625   -0.0119 C.ar      1 <0>         0.5080
      4 C3          2.3582    0.0588   -0.0202 C.ar      1 <0>        -0.1064
      5 C4          1.1547   -0.6659   -0.0126 C.ar      1 <0>         0.3027
      6 N2          0.0021   -0.0041    0.0020 N.ar      1 <0>        -0.5618
      7 N3          1.5110   -1.9908   -0.0227 N.pl3     1 <0>        -0.4518
      8 C5          2.8729   -2.0476   -0.0358 C.2       1 <0>         0.2847
      9 N4          3.3680   -0.8441   -0.0343 N.2       1 <0>        -0.4659
     10 C6          0.5956   -3.1347   -0.0195 C.3       1 <0>         0.1640
     11 H1         -0.4380   -2.7895    0.0048 H         1 <0>         0.1435
     12 C7          0.8765   -4.0240    1.1657 C.2       1 <0>        -0.0617
     13 C8          1.2289   -5.2366    0.7633 C.2       1 <0>        -0.1971
     14 C9          1.2420   -5.3548   -0.6905 C.2       1 <0>         0.3719
     15 O1          1.5260   -6.3480   -1.3269 O.2       1 <0>        -0.4147
     16 C10         0.8349   -4.0111   -1.2616 C.3       1 <0>         0.0475
     17 H2         -0.0811   -4.1047   -1.8449 H         1 <0>         0.1153
     18 O2          1.8863   -3.4678   -2.0624 O.3       1 <0>        -0.5299
     19 C11         1.5770   -6.3642    1.7006 C.3       1 <0>         0.1296
     20 O3          1.4642   -5.9125    3.0517 O.3       1 <0>        -0.5714
     21 N5          3.4393    2.2295   -0.0193 N.pl3     1 <0>        -0.8179
     22 H3         -0.9693    1.8187    0.0257 H         1 <0>         0.2048
     23 H4          3.4551   -2.9572   -0.0459 H         1 <0>         0.2134
     24 H5          0.8015   -3.7157    2.1980 H         1 <0>         0.1669
     25 H6          2.0794   -3.9810   -2.8589 H         1 <0>         0.3962
     26 H7          0.8925   -7.1966    1.5375 H         1 <0>         0.0686
     27 H8          2.5991   -6.6918    1.5111 H         1 <0>         0.0694
     28 H9          1.6742   -6.5880    3.7110 H         1 <0>         0.3919
     29 H10         3.3774    3.1975   -0.0138 H         1 <0>         0.4105
     30 H11         4.3085    1.7992   -0.0299 H         1 <0>         0.4190
@<TRIPOS>BOND
     1    1    6 ar
     2    1    2 ar
     3    1   22 1
     4    2    3 ar
     5    3    4 ar
     6    3   21 1
     7    4    9 1
     8    4    5 ar
     9    5    6 ar
    10    5    7 1
    11    7    8 1
    12    7   10 1
    13    8    9 2
    14    8   23 1
    15   10   11 1
    16   10   16 1
    17   10   12 1
    18   12   13 2
    19   12   24 1
    20   13   14 1
    21   13   19 1
    22   14   15 2
    23   14   16 1
    24   16   17 1
    25   16   18 1
    26   18   25 1
    27   19   20 1
    28   19   26 1
    29   19   27 1
    30   20   28 1
    31   21   29 1
    32   21   30 1
@<TRIPOS>MOLECULE
CHEMBL30511__1
   29    31     0     0     0
SMALL
USER_CHARGES

@<TRIPOS>ATOM
      1 C1         -0.0158    1.3119    0.0093 C.ar      1 <0>         0.3339
      2 N1          1.0888    2.0360    0.0026 N.ar      1 <0>        -0.6019
      3 C2          2.2875    1.4625   -0.0119 C.ar      1 <0>         0.4935
      4 C3          2.3582    0.0588   -0.0202 C.ar      1 <0>        -0.0977
      5 C4          1.1547   -0.6659   -0.0126 C.ar      1 <0>         0.2848
      6 N2          0.0021   -0.0041    0.0020 N.ar      1 <0>        -0.5509
      7 N3          1.5110   -1.9908   -0.0227 N.pl3     1 <0>        -0.4095
      8 C5          2.8729   -2.0476   -0.0358 C.2       1 <0>         0.3295
      9 N4          3.3680   -0.8441   -0.0343 N.2       1 <0>        -0.5034
     10 C6          0.5956   -3.1347   -0.0195 C.3       1 <0>         0.1080
     11 H1         -0.4380   -2.7895    0.0048 H         1 <0>         0.1044
     12 C7          0.8765   -4.0240    1.1657 C.2       1 <0>        -0.0759
     13 C8          1.2289   -5.2366    0.7633 C.2       1 <0>        -0.2063
     14 C9          1.2420   -5.3548   -0.6905 C.2       1 <0>         0.3685
     15 O1          1.5260   -6.3480   -1.3269 O.2       1 <0>        -0.4674
     16 C10         0.8349   -4.0111   -1.2616 C.3       1 <0>         0.1206
     17 H2         -0.0811   -4.1047   -1.8449 H         1 <0>         0.0253
     18 O2          1.8863   -3.4678   -2.0624 O.3       1 <0>        -0.8381
     19 C11         1.5770   -6.3642    1.7006 C.3       1 <0>         0.1299
     20 O3          1.4642   -5.9125    3.0517 O.3       1 <0>        -0.5724
     21 N5          3.4393    2.2295   -0.0193 N.pl3     1 <0>        -0.8287
     22 H3         -0.9693    1.8187    0.0257 H         1 <0>         0.1946
     23 H4          3.4551   -2.9572   -0.0459 H         1 <0>         0.2063
     24 H5          0.8015   -3.7157    2.1980 H         1 <0>         0.1378
     25 H6          0.8925   -7.1966    1.5375 H         1 <0>         0.0587
     26 H7          2.5991   -6.6918    1.5111 H         1 <0>         0.0606
     27 H8          1.6742   -6.5880    3.7110 H         1 <0>         0.3782
     28 H9          3.3774    3.1975   -0.0138 H         1 <0>         0.4024
     29 H10         4.3085    1.7992   -0.0299 H         1 <0>         0.4152
@<TRIPOS>BOND
     1    1    6 ar
     2    1    2 ar
     3    1   22 1
     4    2    3 ar
     5    3    4 ar
     6    3   21 1
     7    4    9 1
     8    4    5 ar
     9    5    6 ar
    10    5    7 1
    11    7    8 1
    12    7   10 1
    13    8    9 2
    14    8   23 1
    15   10   11 1
    16   10   16 1
    17   10   12 1
    18   12   13 2
    19   12   24 1
    20   13   14 1
    21   13   19 1
    22   14   15 2
    23   14   16 1
    24   16   17 1
    25   16   18 1
    26   19   20 1
    27   19   25 1
    28   19   26 1
    29   20   27 1
    30   21   28 1
    31   21   29 1
@<TRIPOS>MOLECULE
CHEMBL49511
   25    26     0     0     0
SMALL
USER_CHARGES

@<TRIPOS>ATOM
      1 C1         -0.0168    1.3888    0.0097 C.ar      1 <0>        -0.2288
      2 C2          1.1684    2.0691    0.0020 C.ar      1 <0>         0.1585
      3 N1          2.3299    1.4347   -0.0129 N.ar      1 <0>        -0.5611
      4 C3          2.4134    0.1149   -0.0208 C.ar      1 <0>         0.4783
      5 C4          1.2446   -0.6613   -0.0134 C.ar      1 <0>        -0.0642
      6 C5          0.0021   -0.0041    0.0020 C.ar      1 <0>         0.1232
      7 N2         -0.9528   -0.9923    0.0054 N.pl3     1 <0>        -0.4851
      8 C6         -0.2992   -2.1879   -0.0075 C.2       1 <0>         0.2455
      9 N3          0.9874   -1.9923   -0.0176 N.2       1 <0>        -0.4676
     10 C7         -2.4046   -0.7967    0.0209 C.3       1 <0>         0.2334
     11 C8         -2.8883   -0.6029   -1.3558 C.1       1 <0>        -0.1977
     12 C9         -3.2741   -0.4484   -2.4538 C.1       1 <0>        -0.1360
     13 C10        -3.7578   -0.2545   -3.8305 C.3       1 <0>         0.1858
     14 O1         -5.1739   -0.0637   -3.8154 O.3       1 <0>        -0.5659
     15 N4          3.6572   -0.5024   -0.0369 N.pl3     1 <0>        -0.8335
     16 H1         -0.9550    1.9235    0.0260 H         1 <0>         0.1286
     17 H2          1.1569    3.1490    0.0079 H         1 <0>         0.1622
     18 H3         -0.7785   -3.1558   -0.0079 H         1 <0>         0.2167
     19 H4         -2.8848   -1.6739    0.4546 H         1 <0>         0.1239
     20 H5         -2.6464    0.0825    0.6181 H         1 <0>         0.1162
     21 H6         -3.2776    0.6226   -4.2642 H         1 <0>         0.0773
     22 H7         -3.5160   -1.1337   -4.4277 H         1 <0>         0.0769
     23 H8         -5.5621    0.0704   -4.6908 H         1 <0>         0.3919
     24 H9          4.4650    0.0345   -0.0424 H         1 <0>         0.4065
     25 H10         3.7181   -1.4705   -0.0427 H         1 <0>         0.4151
@<TRIPOS>BOND
     1    1    6 ar
     2    1    2 ar
     3    1   16 1
     4    2    3 ar
     5    2   17 1
     6    3    4 ar
     7    4    5 ar
     8    4   15 1
     9    5    9 1
    10    5    6 ar
    11    6    7 1
    12    7    8 1
    13    7   10 1
    14    8    9 2
    15    8   18 1
    16   10   11 1
    17   10   19 1
    18   10   20 1
    19   11   12 3
    20   12   13 1
    21   13   14 1
    22   13   21 1
    23   13   22 1
    24   14   23 1
    25   15   24 1
    26   15   25 1
@<TRIPOS>MOLECULE
CHEMBL611098
   34    36     0     0     0
SMALL
USER_CHARGES

@<TRIPOS>ATOM
      1 C1          0.0180   -1.1779   -0.0044 C.1       1 <0>        -0.1699
      2 C2          0.0021   -0.0041    0.0020 C.1       1 <0>        -0.1725
      3 C3         -0.0173    1.4278    0.0099 C.2       1 <0>        -0.0252
      4 C4          1.1242    2.1077    0.0026 C.2       1 <0>        -0.1650
      5 C5          1.1038    3.6146    0.0109 C.3       1 <0>         0.0929
      6 H1          1.5117    3.9949   -0.9255 H         1 <0>         0.1156
      7 C6          1.9371    4.1431    1.1982 C.3       1 <0>         0.0510
      8 H2          2.0227    3.3874    1.9790 H         1 <0>         0.0936
      9 C7          1.0878    5.3483    1.6863 C.3       1 <0>         0.0751
     10 H3          1.2372    5.5287    2.7508 H         1 <0>         0.0979
     11 C8         -0.3454    4.8321    1.4031 C.3       1 <0>         0.3209
     12 O1         -0.2397    4.0814    0.1808 O.3       1 <0>        -0.3586
     13 N1         -1.2663    5.9581    1.2290 N.pl3     1 <0>        -0.4619
     14 C9         -1.6399    6.5187    0.0439 C.2       1 <0>         0.2854
     15 N2         -2.4698    7.4982    0.2574 N.2       1 <0>        -0.4679
     16 C10        -2.6809    7.6281    1.5892 C.ar      1 <0>        -0.1037
     17 C11        -1.9155    6.6379    2.2283 C.ar      1 <0>         0.3063
     18 N3         -1.9524    6.5483    3.5537 N.ar      1 <0>        -0.5628
     19 C12        -2.6965    7.3719    4.2614 C.ar      1 <0>         0.3636
     20 N4         -3.4347    8.3153    3.7058 N.ar      1 <0>        -0.5922
     21 C13        -3.4549    8.4867    2.3879 C.ar      1 <0>         0.5082
     22 N5         -4.2326    9.4776    1.8147 N.pl3     1 <0>        -0.8174
     23 O2          1.3735    6.5223    0.9232 O.3       1 <0>        -0.5360
     24 O3          3.2295    4.5697    0.7625 O.3       1 <0>        -0.5458
     25 H4          0.0322   -2.2278   -0.0102 H         1 <0>         0.2239
     26 H5         -0.9599    1.9550    0.0172 H         1 <0>         0.1430
     27 H6          2.0667    1.5805   -0.0092 H         1 <0>         0.1309
     28 H7         -0.6830    4.1884    2.2153 H         1 <0>         0.1286
     29 H8         -1.2974    6.1976   -0.9287 H         1 <0>         0.2202
     30 H9         -2.7038    7.2720    5.3368 H         1 <0>         0.2051
     31 H10        -4.2477    9.5855    0.8508 H         1 <0>         0.4193
     32 H11        -4.7627   10.0641    2.3767 H         1 <0>         0.4106
     33 H12         2.2917    6.8189    0.9866 H         1 <0>         0.3945
     34 H13         3.7640    3.8662    0.3695 H         1 <0>         0.3926
@<TRIPOS>BOND
     1    1    2 3
     2    1   25 1
     3    2    3 1
     4    3    4 2
     5    3   26 1
     6    4    5 1
     7    4   27 1
     8    5    6 1
     9    5   12 1
    10    5    7 1
    11    7    8 1
    12    7    9 1
    13    7   24 1
    14    9   10 1
    15    9   11 1
    16    9   23 1
    17   11   12 1
    18   11   13 1
    19   11   28 1
    20   13   17 1
    21   13   14 1
    22   14   15 2
    23   14   29 1
    24   15   16 1
    25   16   21 ar
    26   16   17 ar
    27   17   18 ar
    28   18   19 ar
    29   19   20 ar
    30   19   30 1
    31   20   21 ar
    32   21   22 1
    33   22   31 1
    34   22   32 1
    35   23   33 1
    36   24   34 1
@<TRIPOS>MOLECULE
CHEMBL611098__1
   34    36     0     0     0
SMALL
USER_CHARGES

@<TRIPOS>ATOM
      1 C1          0.0180   -1.1779   -0.0044 C.1       1 <0>        -0.1667
      2 C2          0.0021   -0.0041    0.0020 C.1       1 <0>        -0.1737
      3 C3         -0.0173    1.4278    0.0099 C.2       1 <0>        -0.0220
      4 C4          1.1242    2.1077    0.0026 C.2       1 <0>        -0.1480
      5 C5          1.1038    3.6146    0.0109 C.3       1 <0>         0.0854
      6 H1          1.5096    4.0079   -0.9211 H         1 <0>         0.1098
      7 C6          1.8942    4.1645    1.2255 C.3       1 <0>         0.0505
      8 H2          1.7441    3.5367    2.1038 H         1 <0>         0.0903
      9 C7          1.2516    5.5585    1.4264 C.3       1 <0>         0.0795
     10 H3          1.1208    5.7689    2.4879 H         1 <0>         0.0846
     11 C8         -0.1166    5.4482    0.7259 C.3       1 <0>         0.3174
     12 O1         -0.2372    4.1037    0.2280 O.3       1 <0>        -0.3549
     13 N1         -1.1902    5.7248    1.6835 N.pl3     1 <0>        -0.4745
     14 C9         -1.8879    4.8003    2.4023 C.2       1 <0>         0.2627
     15 N2         -2.7676    5.3941    3.1554 N.2       1 <0>        -0.4590
     16 C10        -2.6908    6.7336    2.9683 C.ar      1 <0>        -0.1089
     17 C11        -1.6740    6.9623    2.0256 C.ar      1 <0>         0.3112
     18 N3         -1.3932    8.2112    1.6686 N.ar      1 <0>        -0.5540
     19 C12        -2.0541    9.2229    2.1907 C.ar      1 <0>         0.3672
     20 N4         -3.0146    9.0580    3.0817 N.ar      1 <0>        -0.5908
     21 C13        -3.3712    7.8453    3.4929 C.ar      1 <0>         0.5097
     22 N5         -4.3784    7.6825    4.4279 N.pl3     1 <0>        -0.8165
     23 O2          2.0510    6.5711    0.8119 O.3       1 <0>        -0.5342
     24 O3          3.2847    4.2827    0.9178 O.3       1 <0>        -0.5442
     25 H4          0.0322   -2.2278   -0.0102 H         1 <0>         0.2240
     26 H5         -0.9599    1.9550    0.0172 H         1 <0>         0.1432
     27 H6          2.0667    1.5805   -0.0092 H         1 <0>         0.1353
     28 H7         -0.1661    6.1536   -0.1036 H         1 <0>         0.1286
     29 H8         -1.7335    3.7325    2.3538 H         1 <0>         0.2225
     30 H9         -1.8010   10.2255    1.8789 H         1 <0>         0.2070
     31 H10        -4.6220    6.7930    4.7285 H         1 <0>         0.4193
     32 H11        -4.8408    8.4579    4.7827 H         1 <0>         0.4115
     33 H12         2.9433    6.6435    1.1773 H         1 <0>         0.3963
     34 H13         3.7112    3.4437    0.6960 H         1 <0>         0.3915
@<TRIPOS>BOND
     1    1    2 3
     2    1   25 1
     3    2    3 1
     4    3    4 2
     5    3   26 1
     6    4    5 1
     7    4   27 1
     8    5    6 1
     9    5   12 1
    10    5    7 1
    11    7    8 1
    12    7    9 1
    13    7   24 1
    14    9   10 1
    15    9   11 1
    16    9   23 1
    17   11   12 1
    18   11   13 1
    19   11   28 1
    20   13   17 1
    21   13   14 1
    22   14   15 2
    23   14   29 1
    24   15   16 1
    25   16   21 ar
    26   16   17 ar
    27   17   18 ar
    28   18   19 ar
    29   19   20 ar
    30   19   30 1
    31   20   21 ar
    32   21   22 1
    33   22   31 1
    34   22   32 1
    35   23   33 1
    36   24   34 1
@<TRIPOS>MOLECULE
CHEMBL49917
   26    27     0     0     0
SMALL
USER_CHARGES

@<TRIPOS>ATOM
      1 C1         -0.0158    1.3119    0.0093 C.ar      1 <0>         0.3642
      2 N1          1.0888    2.0360    0.0026 N.ar      1 <0>        -0.5937
      3 C2          2.2875    1.4625   -0.0119 C.ar      1 <0>         0.5091
      4 C3          2.3582    0.0588   -0.0202 C.ar      1 <0>        -0.1125
      5 C4          1.1547   -0.6659   -0.0126 C.ar      1 <0>         0.3017
      6 N2          0.0021   -0.0041    0.0020 N.ar      1 <0>        -0.5595
      7 N3          1.5110   -1.9908   -0.0227 N.pl3     1 <0>        -0.4689
      8 C5          2.8729   -2.0476   -0.0358 C.2       1 <0>         0.2541
      9 N4          3.3680   -0.8441   -0.0343 N.2       1 <0>        -0.4633
     10 C6          0.5956   -3.1347   -0.0195 C.3       1 <0>         0.1457
     11 C7          0.1713   -3.4424   -1.4324 C.2       1 <0>        -0.1717
     12 C8          0.3424   -4.6461   -1.9202 C.2       1 <0>        -0.1258
     13 C9         -0.0819   -4.9538   -3.3331 C.3       1 <0>         0.1015
     14 O1          0.9465   -5.6995   -3.9876 O.3       1 <0>        -0.5704
     15 N5          3.4393    2.2295   -0.0193 N.pl3     1 <0>        -0.8175
     16 H1         -0.9693    1.8187    0.0257 H         1 <0>         0.2048
     17 H2          3.4551   -2.9572   -0.0459 H         1 <0>         0.2225
     18 H3          1.1000   -4.0024    0.4056 H         1 <0>         0.1046
     19 H4         -0.2829   -2.8953    0.5797 H         1 <0>         0.1062
     20 H5         -0.2739   -2.6706   -2.0428 H         1 <0>         0.1181
     21 H6          0.7875   -5.4179   -1.3099 H         1 <0>         0.1219
     22 H7         -1.0011   -5.5394   -3.3171 H         1 <0>         0.0610
     23 H8         -0.2541   -4.0221   -3.8719 H         1 <0>         0.0530
     24 H9          0.7409   -5.9331   -4.9032 H         1 <0>         0.3852
     25 H10         3.3774    3.1975   -0.0138 H         1 <0>         0.4107
     26 H11         4.3085    1.7992   -0.0299 H         1 <0>         0.4190
@<TRIPOS>BOND
     1    1    6 ar
     2    1    2 ar
     3    1   16 1
     4    2    3 ar
     5    3    4 ar
     6    3   15 1
     7    4    9 1
     8    4    5 ar
     9    5    6 ar
    10    5    7 1
    11    7    8 1
    12    7   10 1
    13    8    9 2
    14    8   17 1
    15   10   11 1
    16   10   18 1
    17   10   19 1
    18   11   12 2
    19   11   20 1
    20   12   13 1
    21   12   21 1
    22   13   14 1
    23   13   22 1
    24   13   23 1
    25   14   24 1
    26   15   25 1
    27   15   26 1
@<TRIPOS>MOLECULE
CHEMBL171700
   28    30     0     0     0
SMALL
USER_CHARGES

@<TRIPOS>ATOM
      1 C1         -0.0158    1.3119    0.0093 C.ar      1 <0>         0.3502
      2 N1          1.0888    2.0360    0.0026 N.ar      1 <0>        -0.5972
      3 C2          2.2875    1.4625   -0.0119 C.ar      1 <0>         0.5030
      4 C3          2.3582    0.0588   -0.0202 C.ar      1 <0>        -0.1012
      5 C4          1.1547   -0.6659   -0.0126 C.ar      1 <0>         0.3014
      6 N2          0.0021   -0.0041    0.0020 N.ar      1 <0>        -0.5532
      7 N3          1.5110   -1.9908   -0.0227 N.pl3     1 <0>        -0.4470
      8 C5          2.8729   -2.0476   -0.0358 C.2       1 <0>         0.2960
      9 N4          3.3680   -0.8441   -0.0343 N.2       1 <0>        -0.4810
     10 C6          0.5956   -3.1347   -0.0195 C.3       1 <0>         0.3101
     11 H1         -0.2855   -2.9205    0.5853 H         1 <0>         0.1189
     12 C7          0.1888   -3.5174   -1.4676 C.3       1 <0>         0.0371
     13 H2         -0.6919   -2.9609   -1.7883 H         1 <0>         0.0615
     14 C8         -0.1345   -5.0230   -1.2949 C.3       1 <0>         0.1555
     15 H3         -1.2097   -5.1742   -1.1991 H         1 <0>         0.0089
     16 C9          0.5728   -5.4067   -0.0090 C.2       1 <0>         0.0179
     17 C10         0.5265   -6.5901    0.5693 C.2       1 <0>        -0.0600
     18 F1          1.2036   -6.8075    1.7180 F         1 <0>        -0.1708
     19 O1          1.2641   -4.3233    0.4536 O.3       1 <0>        -0.3166
     20 O2          0.3796   -5.7750   -2.3959 O.3       1 <0>        -0.8548
     21 O3          1.2750   -3.3240   -2.3758 O.3       1 <0>        -0.5442
     22 N5          3.4393    2.2295   -0.0193 N.pl3     1 <0>        -0.8231
     23 H4         -0.9693    1.8187    0.0257 H         1 <0>         0.2012
     24 H5          3.4551   -2.9572   -0.0459 H         1 <0>         0.2192
     25 H6         -0.0527   -7.3860    0.1250 H         1 <0>         0.1609
     26 H7          1.0664   -3.5505   -3.2925 H         1 <0>         0.3837
     27 H8          3.3774    3.1975   -0.0138 H         1 <0>         0.4063
     28 H9          4.3085    1.7992   -0.0299 H         1 <0>         0.4172
@<TRIPOS>BOND
     1    1    6 ar
     2    1    2 ar
     3    1   23 1
     4    2    3 ar
     5    3    4 ar
     6    3   22 1
     7    4    9 1
     8    4    5 ar
     9    5    6 ar
    10    5    7 1
    11    7    8 1
    12    7   10 1
    13    8    9 2
    14    8   24 1
    15   10   11 1
    16   10   19 1
    17   10   12 1
    18   12   13 1
    19   12   14 1
    20   12   21 1
    21   14   15 1
    22   14   16 1
    23   14   20 1
    24   16   17 2
    25   16   19 1
    26   17   18 1
    27   17   25 1
    28   21   26 1
    29   22   27 1
    30   22   28 1
@<TRIPOS>MOLECULE
CHEMBL171700__1
   29    31     0     0     0
SMALL
USER_CHARGES

@<TRIPOS>ATOM
      1 C1         -0.0158    1.3119    0.0093 C.ar      1 <0>         0.3656
      2 N1          1.0888    2.0360    0.0026 N.ar      1 <0>        -0.5913
      3 C2          2.2875    1.4625   -0.0119 C.ar      1 <0>         0.5099
      4 C3          2.3582    0.0588   -0.0202 C.ar      1 <0>        -0.1027
      5 C4          1.1547   -0.6659   -0.0126 C.ar      1 <0>         0.3070
      6 N2          0.0021   -0.0041    0.0020 N.ar      1 <0>        -0.5633
      7 N3          1.5110   -1.9908   -0.0227 N.pl3     1 <0>        -0.4615
      8 C5          2.8729   -2.0476   -0.0358 C.2       1 <0>         0.2874
      9 N4          3.3680   -0.8441   -0.0343 N.2       1 <0>        -0.4646
     10 C6          0.5956   -3.1347   -0.0195 C.3       1 <0>         0.3190
     11 H1         -0.2855   -2.9205    0.5853 H         1 <0>         0.1360
     12 C7          0.1888   -3.5174   -1.4676 C.3       1 <0>         0.0771
     13 H2         -0.6919   -2.9609   -1.7883 H         1 <0>         0.1047
     14 C8         -0.1345   -5.0230   -1.2949 C.3       1 <0>         0.0938
     15 H3         -1.2097   -5.1742   -1.1991 H         1 <0>         0.1003
     16 C9          0.5728   -5.4067   -0.0090 C.2       1 <0>        -0.0363
     17 C10         0.5265   -6.5901    0.5693 C.2       1 <0>         0.0177
     18 F1          1.2036   -6.8075    1.7180 F         1 <0>        -0.1368
     19 O1          1.2641   -4.3233    0.4536 O.3       1 <0>        -0.2948
     20 O2          0.3796   -5.7750   -2.3959 O.3       1 <0>        -0.5372
     21 O3          1.2750   -3.3240   -2.3758 O.3       1 <0>        -0.5296
     22 N5          3.4393    2.2295   -0.0193 N.pl3     1 <0>        -0.8161
     23 H4         -0.9693    1.8187    0.0257 H         1 <0>         0.2064
     24 H5          3.4551   -2.9572   -0.0459 H         1 <0>         0.2209
     25 H6         -0.0527   -7.3860    0.1250 H         1 <0>         0.1727
     26 H7          0.2054   -6.7245   -2.3391 H         1 <0>         0.3900
     27 H8          1.0664   -3.5505   -3.2925 H         1 <0>         0.3945
     28 H9          3.3774    3.1975   -0.0138 H         1 <0>         0.4113
     29 H10         4.3085    1.7992   -0.0299 H         1 <0>         0.4197
@<TRIPOS>BOND
     1    1    6 ar
     2    1    2 ar
     3    1   23 1
     4    2    3 ar
     5    3    4 ar
     6    3   22 1
     7    4    9 1
     8    4    5 ar
     9    5    6 ar
    10    5    7 1
    11    7    8 1
    12    7   10 1
    13    8    9 2
    14    8   24 1
    15   10   11 1
    16   10   19 1
    17   10   12 1
    18   12   13 1
    19   12   14 1
    20   12   21 1
    21   14   15 1
    22   14   16 1
    23   14   20 1
    24   16   17 2
    25   16   19 1
    26   17   18 1
    27   17   25 1
    28   20   26 1
    29   21   27 1
    30   22   28 1
    31   22   29 1
@<TRIPOS>MOLECULE
CHEMBL612224
   44    47     0     0     0
SMALL
USER_CHARGES

@<TRIPOS>ATOM
      1 C1         -0.0167    1.3781    0.0096 C.ar      1 <0>        -0.1056
      2 C2          1.1709    2.0855    0.0021 C.ar      1 <0>        -0.1219
      3 C3          2.3773    1.4107   -0.0130 C.ar      1 <0>        -0.0951
      4 C4          2.3960    0.0285   -0.0201 C.ar      1 <0>        -0.1028
      5 C5          1.2084   -0.6789   -0.0117 C.ar      1 <0>        -0.0939
      6 C6          0.0021   -0.0041    0.0020 C.ar      1 <0>        -0.1214
      7 C7          3.7112   -0.7071   -0.0376 C.3       1 <0>         0.1095
      8 O1          4.1410   -0.9464    1.3041 O.3       1 <0>        -0.3459
      9 C8          5.3041   -1.5968    1.4645 C.2       1 <0>         0.4432
     10 O2          5.9364   -1.9514    0.4979 O.2       1 <0>        -0.4751
     11 C9          5.8214   -1.8850    2.8503 C.3       1 <0>         0.0709
     12 H1          5.0711   -2.4354    3.4179 H         1 <0>         0.1429
     13 C10         6.1556   -0.5609    3.5704 C.3       1 <0>         0.0596
     14 H2          6.3365    0.2372    2.8505 H         1 <0>         0.0954
     15 C11         7.4584   -0.9213    4.3351 C.3       1 <0>         0.0772
     16 H3          8.0820   -0.0401    4.4859 H         1 <0>         0.1058
     17 C12         8.1190   -1.9095    3.3412 C.3       1 <0>         0.3199
     18 O3          7.0283   -2.6521    2.7688 O.3       1 <0>        -0.3331
     19 N1          9.0298   -2.8114    4.0506 N.pl3     1 <0>        -0.4622
     20 C13         8.7330   -4.0602    4.5097 C.2       1 <0>         0.2851
     21 N2          9.7750   -4.5794    5.0914 N.2       1 <0>        -0.4657
     22 C14        10.8038   -3.6994    5.0427 C.ar      1 <0>        -0.1033
     23 C15        10.3397   -2.5566    4.3694 C.ar      1 <0>         0.3079
     24 N3         11.1692   -1.5352    4.1832 N.ar      1 <0>        -0.5630
     25 C16        12.4101   -1.5905    4.6192 C.ar      1 <0>         0.3648
     26 N4         12.8921   -2.6434    5.2537 N.ar      1 <0>        -0.5918
     27 C17        12.1345   -3.7088    5.4938 C.ar      1 <0>         0.5091
     28 N5         12.6490   -4.8081    6.1587 N.pl3     1 <0>        -0.8169
     29 O4          7.1653   -1.5599    5.5794 O.3       1 <0>        -0.5334
     30 O5          5.1126   -0.1979    4.4773 O.3       1 <0>        -0.5374
     31 H4         -0.9591    1.9053    0.0259 H         1 <0>         0.1263
     32 H5          1.1563    3.1654    0.0076 H         1 <0>         0.1272
     33 H6          3.3051    1.9634   -0.0196 H         1 <0>         0.1243
     34 H7          1.2231   -1.7588   -0.0176 H         1 <0>         0.1250
     35 H8         -0.9258   -0.5567    0.0082 H         1 <0>         0.1274
     36 H9          3.5884   -1.6586   -0.5549 H         1 <0>         0.0814
     37 H10         4.4573   -0.1052   -0.5563 H         1 <0>         0.0806
     38 H11         8.6547   -1.3636    2.5646 H         1 <0>         0.1327
     39 H12         7.7744   -4.5468    4.4064 H         1 <0>         0.2208
     40 H13        13.0582   -0.7431    4.4514 H         1 <0>         0.2056
     41 H14        12.0893   -5.5842    6.3180 H         1 <0>         0.4194
     42 H15        13.5692   -4.8026    6.4653 H         1 <0>         0.4109
     43 H16         6.6566   -1.0118    6.1926 H         1 <0>         0.3969
     44 H17         4.2568   -0.0478    4.0528 H         1 <0>         0.3986
@<TRIPOS>BOND
     1    1    6 ar
     2    1    2 ar
     3    1   31 1
     4    2    3 ar
     5    2   32 1
     6    3    4 ar
     7    3   33 1
     8    4    5 ar
     9    4    7 1
    10    5    6 ar
    11    5   34 1
    12    6   35 1
    13    7    8 1
    14    7   36 1
    15    7   37 1
    16    8    9 1
    17    9   10 2
    18    9   11 1
    19   11   12 1
    20   11   18 1
    21   11   13 1
    22   13   14 1
    23   13   15 1
    24   13   30 1
    25   15   16 1
    26   15   17 1
    27   15   29 1
    28   17   18 1
    29   17   19 1
    30   17   38 1
    31   19   23 1
    32   19   20 1
    33   20   21 2
    34   20   39 1
    35   21   22 1
    36   22   27 ar
    37   22   23 ar
    38   23   24 ar
    39   24   25 ar
    40   25   26 ar
    41   25   40 1
    42   26   27 ar
    43   27   28 1
    44   28   41 1
    45   28   42 1
    46   29   43 1
    47   30   44 1
@<TRIPOS>MOLECULE
CHEMBL612224__1
   44    47     0     0     0
SMALL
USER_CHARGES

@<TRIPOS>ATOM
      1 C1         -0.0167    1.3781    0.0096 C.ar      1 <0>        -0.1052
      2 C2          1.1709    2.0855    0.0021 C.ar      1 <0>        -0.1220
      3 C3          2.3773    1.4107   -0.0130 C.ar      1 <0>        -0.0947
      4 C4          2.3960    0.0285   -0.0201 C.ar      1 <0>        -0.1034
      5 C5          1.2084   -0.6789   -0.0117 C.ar      1 <0>        -0.0937
      6 C6          0.0021   -0.0041    0.0020 C.ar      1 <0>        -0.1215
      7 C7          3.7112   -0.7071   -0.0376 C.3       1 <0>         0.1100
      8 O1          4.1410   -0.9464    1.3041 O.3       1 <0>        -0.3431
      9 C8          5.3041   -1.5968    1.4645 C.2       1 <0>         0.4584
     10 O2          5.9364   -1.9514    0.4979 O.2       1 <0>        -0.4726
     11 C9          5.8214   -1.8850    2.8503 C.3       1 <0>         0.0635
     12 H1          5.0716   -2.4354    3.4186 H         1 <0>         0.1338
     13 C10         6.1582   -0.5641    3.5691 C.3       1 <0>         0.0557
     14 H2          5.9961    0.2842    2.9041 H         1 <0>         0.0928
     15 C11         7.6596   -0.6965    3.9224 C.3       1 <0>         0.0789
     16 H3          8.2796   -0.1931    3.1806 H         1 <0>         0.0940
     17 C12         7.8713   -2.2311    3.8705 C.3       1 <0>         0.3198
     18 O3          7.0342   -2.6524    2.7696 O.3       1 <0>        -0.3336
     19 N1          9.2759   -2.5494    3.6024 N.pl3     1 <0>        -0.4727
     20 C13         9.8264   -2.8040    2.3816 C.2       1 <0>         0.2641
     21 N2         11.0982   -3.0485    2.5096 N.2       1 <0>        -0.4592
     22 C14        11.4438   -2.9666    3.8169 C.ar      1 <0>        -0.1102
     23 C15        10.2798   -2.6399    4.5332 C.ar      1 <0>         0.3173
     24 N3         10.3525   -2.4943    5.8521 N.ar      1 <0>        -0.5459
     25 C16        11.4978   -2.6502    6.4822 C.ar      1 <0>         0.3650
     26 N4         12.6178   -2.9538    5.8521 N.ar      1 <0>        -0.5911
     27 C17        12.6410   -3.1278    4.5346 C.ar      1 <0>         0.5088
     28 N5         13.8200   -3.4448    3.8829 N.pl3     1 <0>        -0.8174
     29 O4          7.9220   -0.1888    5.2321 O.3       1 <0>        -0.5167
     30 O5          5.3730   -0.4256    4.7549 O.3       1 <0>        -0.5300
     31 H4         -0.9591    1.9053    0.0259 H         1 <0>         0.1265
     32 H5          1.1563    3.1654    0.0076 H         1 <0>         0.1273
     33 H6          3.3051    1.9634   -0.0196 H         1 <0>         0.1242
     34 H7          1.2231   -1.7588   -0.0176 H         1 <0>         0.1253
     35 H8         -0.9258   -0.5567    0.0082 H         1 <0>         0.1276
     36 H9          3.5884   -1.6586   -0.5549 H         1 <0>         0.0825
     37 H10         4.4573   -0.1052   -0.5563 H         1 <0>         0.0815
     38 H11         7.5421   -2.6956    4.8000 H         1 <0>         0.1321
     39 H12         9.2867   -2.8033    1.4461 H         1 <0>         0.2254
     40 H13        11.5223   -2.5248    7.5546 H         1 <0>         0.2061
     41 H14        13.8263   -3.5583    2.9196 H         1 <0>         0.4191
     42 H15        14.6400   -3.5535    4.3895 H         1 <0>         0.4111
     43 H16         7.7181    0.7505    5.3379 H         1 <0>         0.3901
     44 H17         4.4199   -0.3959    4.5943 H         1 <0>         0.3922
@<TRIPOS>BOND
     1    1    6 ar
     2    1    2 ar
     3    1   31 1
     4    2    3 ar
     5    2   32 1
     6    3    4 ar
     7    3   33 1
     8    4    5 ar
     9    4    7 1
    10    5    6 ar
    11    5   34 1
    12    6   35 1
    13    7    8 1
    14    7   36 1
    15    7   37 1
    16    8    9 1
    17    9   10 2
    18    9   11 1
    19   11   12 1
    20   11   18 1
    21   11   13 1
    22   13   14 1
    23   13   15 1
    24   13   30 1
    25   15   16 1
    26   15   17 1
    27   15   29 1
    28   17   18 1
    29   17   19 1
    30   17   38 1
    31   19   23 1
    32   19   20 1
    33   20   21 2
    34   20   39 1
    35   21   22 1
    36   22   27 ar
    37   22   23 ar
    38   23   24 ar
    39   24   25 ar
    40   25   26 ar
    41   25   40 1
    42   26   27 ar
    43   27   28 1
    44   28   41 1
    45   28   42 1
    46   29   43 1
    47   30   44 1
@<TRIPOS>MOLECULE
CHEMBL50306
   33    35     0     0     0
SMALL
USER_CHARGES

@<TRIPOS>ATOM
      1 C1         -0.0187    1.5258    0.0104 C.3       1 <0>        -0.1454
      2 C2          0.0021   -0.0041    0.0020 C.3       1 <0>        -0.0845
      3 H1         -1.0138   -0.3986    0.0221 H         1 <0>         0.0965
      4 C3          0.7630   -0.5291   -1.2407 C.3       1 <0>        -0.1256
      5 C4          1.2087   -1.9442   -0.7960 C.3       1 <0>         0.1448
      6 H2          0.3884   -2.6539   -0.9036 H         1 <0>         0.1278
      7 C5          1.5832   -1.7731    0.6907 C.3       1 <0>         0.0589
      8 H3          2.6566   -1.6118    0.7892 H         1 <0>         0.0708
      9 C6          0.8130   -0.5396    1.2001 C.3       1 <0>         0.0752
     10 H4          1.5133    0.2204    1.5466 H         1 <0>         0.0731
     11 O1         -0.0691   -0.9131    2.2605 O.3       1 <0>        -0.5449
     12 O2          1.1928   -2.9319    1.4303 O.3       1 <0>        -0.5424
     13 N1          2.3704   -2.3837   -1.5729 N.pl3     1 <0>        -0.4633
     14 C7          3.5768   -1.7532   -1.6466 C.2       1 <0>         0.2433
     15 N2          4.3790   -2.4181   -2.4263 N.2       1 <0>        -0.4576
     16 C8          3.7405   -3.5144   -2.9012 C.ar      1 <0>        -0.1144
     17 C9          2.4457   -3.5084   -2.3550 C.ar      1 <0>         0.3093
     18 N3          1.6094   -4.4936   -2.6649 N.ar      1 <0>        -0.5579
     19 C10         1.9858   -5.4649   -3.4698 C.ar      1 <0>         0.3666
     20 N4          3.1922   -5.5151   -4.0043 N.ar      1 <0>        -0.5930
     21 C11         4.0936   -4.5696   -3.7591 C.ar      1 <0>         0.5097
     22 N5          5.3559   -4.6314   -4.3231 N.pl3     1 <0>        -0.8175
     23 H5          1.0039    1.9031    0.0027 H         1 <0>         0.0580
     24 H6         -0.5459    1.8868   -0.8726 H         1 <0>         0.0639
     25 H7         -0.5289    1.8773    0.9072 H         1 <0>         0.0640
     26 H8          0.0999   -0.5864   -2.1040 H         1 <0>         0.0911
     27 H9          1.6278    0.0980   -1.4575 H         1 <0>         0.0849
     28 H10         0.3812   -1.2581    3.0436 H         1 <0>         0.3759
     29 H11         1.4016   -2.8854    2.3733 H         1 <0>         0.3791
     30 H12         3.8294   -0.8368   -1.1339 H         1 <0>         0.2186
     31 H13         1.2816   -6.2504   -3.7013 H         1 <0>         0.2056
     32 H14         6.0087   -3.9412   -4.1276 H         1 <0>         0.4187
     33 H15         5.5877   -5.3650   -4.9139 H         1 <0>         0.4109
@<TRIPOS>BOND
     1    1    2 1
     2    1   23 1
     3    1   24 1
     4    1   25 1
     5    2    3 1
     6    2    9 1
     7    2    4 1
     8    4    5 1
     9    4   26 1
    10    4   27 1
    11    5    6 1
    12    5    7 1
    13    5   13 1
    14    7    8 1
    15    7    9 1
    16    7   12 1
    17    9   10 1
    18    9   11 1
    19   11   28 1
    20   12   29 1
    21   13   17 1
    22   13   14 1
    23   14   15 2
    24   14   30 1
    25   15   16 1
    26   16   21 ar
    27   16   17 ar
    28   17   18 ar
    29   18   19 ar
    30   19   20 ar
    31   19   31 1
    32   20   21 ar
    33   21   22 1
    34   22   32 1
    35   22   33 1
@<TRIPOS>MOLECULE
CHEMBL610148
   37    39     0     0     0
SMALL
USER_CHARGES

@<TRIPOS>ATOM
      1 C1         -0.0158    1.3119    0.0093 C.ar      1 <0>         0.3645
      2 N1          1.0888    2.0360    0.0026 N.ar      1 <0>        -0.5928
      3 C2          2.2875    1.4625   -0.0119 C.ar      1 <0>         0.5088
      4 C3          2.3582    0.0588   -0.0202 C.ar      1 <0>        -0.1046
      5 C4          1.1547   -0.6659   -0.0126 C.ar      1 <0>         0.3119
      6 N2          0.0021   -0.0041    0.0020 N.ar      1 <0>        -0.5625
      7 N3          1.5110   -1.9908   -0.0227 N.pl3     1 <0>        -0.4654
      8 C5          2.8729   -2.0476   -0.0358 C.2       1 <0>         0.2784
      9 N4          3.3680   -0.8441   -0.0343 N.2       1 <0>        -0.4647
     10 C6          0.5956   -3.1347   -0.0195 C.3       1 <0>         0.3182
     11 C7          0.1918   -3.4782    1.4304 C.3       1 <0>         0.0783
     12 H1         -0.7989   -3.0862    1.6604 H         1 <0>         0.1067
     13 C8          0.1808   -5.0311    1.4103 C.3       1 <0>         0.0587
     14 H2         -0.7670   -5.4124    1.0302 H         1 <0>         0.0971
     15 C9          1.3366   -5.3206    0.4198 C.3       1 <0>         0.0611
     16 H3          2.2964   -5.2744    0.9344 H         1 <0>         0.1328
     17 O1          1.2511   -4.2831   -0.5700 O.3       1 <0>        -0.3311
     18 C10         1.1514   -6.6727   -0.2194 C.2       1 <0>         0.4613
     19 O2          0.9492   -6.7566   -1.4076 O.2       1 <0>        -0.4711
     20 O3          1.2111   -7.7838    0.5314 O.3       1 <0>        -0.3455
     21 C11         1.0266   -9.0315   -0.1405 C.3       1 <0>         0.0558
     22 C12         1.1276  -10.1752    0.8708 C.3       1 <0>        -0.0369
     23 Cl1        -0.2348  -10.0603    2.0461 Cl        1 <0>        -0.1684
     24 O4          0.4650   -5.5650    2.7050 O.3       1 <0>        -0.5348
     25 O5          1.1597   -2.9844    2.3585 O.3       1 <0>        -0.5334
     26 N5          3.4393    2.2295   -0.0193 N.pl3     1 <0>        -0.8176
     27 H4         -0.9693    1.8187    0.0257 H         1 <0>         0.2049
     28 H5          3.4551   -2.9572   -0.0459 H         1 <0>         0.2155
     29 H6         -0.2923   -2.8991   -0.6062 H         1 <0>         0.1437
     30 H7          0.0437   -9.0486   -0.6114 H         1 <0>         0.0856
     31 H8          1.7967   -9.1512   -0.9025 H         1 <0>         0.0918
     32 H9          1.0757  -11.1294    0.3465 H         1 <0>         0.1206
     33 H10         2.0752  -10.1052    1.4050 H         1 <0>         0.1087
     34 H11         0.4686   -6.5314    2.7398 H         1 <0>         0.3979
     35 H12         0.9510   -3.1752    3.2832 H         1 <0>         0.3970
     36 H13         3.3774    3.1975   -0.0138 H         1 <0>         0.4106
     37 H14         4.3085    1.7992   -0.0299 H         1 <0>         0.4191
@<TRIPOS>BOND
     1    1    6 ar
     2    1    2 ar
     3    1   27 1
     4    2    3 ar
     5    3    4 ar
     6    3   26 1
     7    4    9 1
     8    4    5 ar
     9    5    6 ar
    10    5    7 1
    11    7    8 1
    12    7   10 1
    13    8    9 2
    14    8   28 1
    15   10   17 1
    16   10   11 1
    17   10   29 1
    18   11   12 1
    19   11   13 1
    20   11   25 1
    21   13   14 1
    22   13   15 1
    23   13   24 1
    24   15   16 1
    25   15   17 1
    26   15   18 1
    27   18   19 2
    28   18   20 1
    29   20   21 1
    30   21   22 1
    31   21   30 1
    32   21   31 1
    33   22   23 1
    34   22   32 1
    35   22   33 1
    36   24   34 1
    37   25   35 1
    38   26   36 1
    39   26   37 1
@<TRIPOS>MOLECULE
CHEMBL610148__1
   37    39     0     0     0
SMALL
USER_CHARGES

@<TRIPOS>ATOM
      1 C1         -0.0158    1.3119    0.0093 C.ar      1 <0>         0.3669
      2 N1          1.0888    2.0360    0.0026 N.ar      1 <0>        -0.5907
      3 C2          2.2875    1.4625   -0.0119 C.ar      1 <0>         0.5098
      4 C3          2.3582    0.0588   -0.0202 C.ar      1 <0>        -0.1090
      5 C4          1.1547   -0.6659   -0.0126 C.ar      1 <0>         0.3146
      6 N2          0.0021   -0.0041    0.0020 N.ar      1 <0>        -0.5499
      7 N3          1.5110   -1.9908   -0.0227 N.pl3     1 <0>        -0.4731
      8 C5          2.8729   -2.0476   -0.0358 C.2       1 <0>         0.2640
      9 N4          3.3680   -0.8441   -0.0343 N.2       1 <0>        -0.4579
     10 C6          0.5956   -3.1347   -0.0195 C.3       1 <0>         0.3169
     11 C7          0.2093   -3.5183   -1.4652 C.3       1 <0>         0.0801
     12 H1          0.9741   -3.1842   -2.1663 H         1 <0>         0.0909
     13 C8          0.1372   -5.0615   -1.4375 C.3       1 <0>         0.0589
     14 H2          0.8663   -5.4903   -2.1250 H         1 <0>         0.0904
     15 C9          0.4884   -5.4276    0.0216 C.3       1 <0>         0.0606
     16 H3         -0.4201   -5.5508    0.6111 H         1 <0>         0.1346
     17 O1          1.2558   -4.3054    0.5091 O.3       1 <0>        -0.3318
     18 C10         1.3139   -6.6878    0.0621 C.2       1 <0>         0.4679
     19 O2          2.4546   -6.6503    0.4584 O.2       1 <0>        -0.4704
     20 O3          0.7818   -7.8519   -0.3422 O.3       1 <0>        -0.3437
     21 C11         1.6213   -9.0064   -0.2767 C.3       1 <0>         0.0560
     22 C12         0.8473  -10.2287   -0.7746 C.3       1 <0>        -0.0373
     23 Cl1         0.4567  -10.0216   -2.5225 Cl        1 <0>        -0.1678
     24 O4         -1.1805   -5.5071   -1.7652 O.3       1 <0>        -0.5313
     25 O5         -1.0609   -2.9610   -1.8087 O.3       1 <0>        -0.5227
     26 N5          3.4393    2.2295   -0.0193 N.pl3     1 <0>        -0.8166
     27 H4         -0.9693    1.8187    0.0257 H         1 <0>         0.2069
     28 H5          3.4551   -2.9572   -0.0459 H         1 <0>         0.2250
     29 H6         -0.2954   -2.9051    0.5649 H         1 <0>         0.1320
     30 H7          2.4999   -8.8528   -0.9032 H         1 <0>         0.0861
     31 H8          1.9344   -9.1699    0.7545 H         1 <0>         0.0923
     32 H9          1.4561  -11.1231   -0.6418 H         1 <0>         0.1209
     33 H10        -0.0766  -10.3303   -0.2053 H         1 <0>         0.1087
     34 H11        -1.2824   -6.4687   -1.7627 H         1 <0>         0.3942
     35 H12        -1.3526   -3.1708   -2.7065 H         1 <0>         0.3937
     36 H13         3.3774    3.1975   -0.0138 H         1 <0>         0.4115
     37 H14         4.3085    1.7992   -0.0299 H         1 <0>         0.4193
@<TRIPOS>BOND
     1    1    6 ar
     2    1    2 ar
     3    1   27 1
     4    2    3 ar
     5    3    4 ar
     6    3   26 1
     7    4    9 1
     8    4    5 ar
     9    5    6 ar
    10    5    7 1
    11    7    8 1
    12    7   10 1
    13    8    9 2
    14    8   28 1
    15   10   17 1
    16   10   11 1
    17   10   29 1
    18   11   12 1
    19   11   13 1
    20   11   25 1
    21   13   14 1
    22   13   15 1
    23   13   24 1
    24   15   16 1
    25   15   17 1
    26   15   18 1
    27   18   19 2
    28   18   20 1
    29   20   21 1
    30   21   22 1
    31   21   30 1
    32   21   31 1
    33   22   23 1
    34   22   32 1
    35   22   33 1
    36   24   34 1
    37   25   35 1
    38   26   36 1
    39   26   37 1
@<TRIPOS>MOLECULE
CHEMBL77965
   32    34     0     0     0
SMALL
USER_CHARGES

@<TRIPOS>ATOM
      1 C1         -0.0158    1.3119    0.0093 C.ar      1 <0>         0.3674
      2 N1          1.0888    2.0360    0.0026 N.ar      1 <0>        -0.5931
      3 C2          2.2875    1.4625   -0.0119 C.ar      1 <0>         0.5100
      4 C3          2.3582    0.0588   -0.0202 C.ar      1 <0>        -0.1141
      5 C4          1.1547   -0.6659   -0.0126 C.ar      1 <0>         0.3118
      6 N2          0.0021   -0.0041    0.0020 N.ar      1 <0>        -0.5575
      7 N3          1.5110   -1.9908   -0.0227 N.pl3     1 <0>        -0.4627
      8 C5          2.8729   -2.0476   -0.0358 C.2       1 <0>         0.2426
      9 N4          3.3680   -0.8441   -0.0343 N.2       1 <0>        -0.4564
     10 C6          0.5956   -3.1347   -0.0195 C.3       1 <0>         0.1431
     11 H1         -0.4408   -2.7980    0.0047 H         1 <0>         0.1318
     12 C7          0.8956   -4.0744    1.1746 C.3       1 <0>        -0.1164
     13 C8          0.3405   -5.4427    0.7279 C.3       1 <0>        -0.1944
     14 H2          0.9913   -6.2428    1.0805 H         1 <0>         0.1120
     15 C9          0.3129   -5.4249   -0.8104 C.3       1 <0>         0.0835
     16 H3          0.9503   -6.2164   -1.2045 H         1 <0>         0.0809
     17 C10         0.8489   -4.0438   -1.2477 C.3       1 <0>         0.1030
     18 H4          1.9152   -4.1017   -1.4660 H         1 <0>         0.0840
     19 O1          0.1299   -3.5607   -2.3843 O.3       1 <0>        -0.5353
     20 O2         -1.0264   -5.5972   -1.2781 O.3       1 <0>        -0.5439
     21 C11        -1.0532   -5.6356    1.2680 C.2       1 <0>         0.3512
     22 O3         -1.2934   -6.5645    2.0013 O.2       1 <0>        -0.4487
     23 N5          3.4393    2.2295   -0.0193 N.pl3     1 <0>        -0.8174
     24 H5         -0.9693    1.8187    0.0257 H         1 <0>         0.2056
     25 H6          3.4551   -2.9572   -0.0459 H         1 <0>         0.2194
     26 H7          1.9695   -4.1374    1.3501 H         1 <0>         0.0945
     27 H8          0.3813   -3.7283    2.0711 H         1 <0>         0.0919
     28 H9          0.2523   -4.0928   -3.1823 H         1 <0>         0.3860
     29 H10        -1.4286   -6.4374   -1.0186 H         1 <0>         0.3812
     30 H11        -1.8371   -4.9430    0.9993 H         1 <0>         0.1101
     31 H12         3.3774    3.1975   -0.0138 H         1 <0>         0.4110
     32 H13         4.3085    1.7992   -0.0299 H         1 <0>         0.4188
@<TRIPOS>BOND
     1    1    6 ar
     2    1    2 ar
     3    1   24 1
     4    2    3 ar
     5    3    4 ar
     6    3   23 1
     7    4    9 1
     8    4    5 ar
     9    5    6 ar
    10    5    7 1
    11    7    8 1
    12    7   10 1
    13    8    9 2
    14    8   25 1
    15   10   11 1
    16   10   17 1
    17   10   12 1
    18   12   13 1
    19   12   26 1
    20   12   27 1
    21   13   14 1
    22   13   15 1
    23   13   21 1
    24   15   16 1
    25   15   17 1
    26   15   20 1
    27   17   18 1
    28   17   19 1
    29   19   28 1
    30   20   29 1
    31   21   22 2
    32   21   30 1
    33   23   31 1
    34   23   32 1
@<TRIPOS>MOLECULE
CHEMBL608468
   32    34     0     0     0
SMALL
USER_CHARGES

@<TRIPOS>ATOM
      1 C1         -0.0158    1.3119    0.0093 C.ar      1 <0>         0.3648
      2 N1          1.0888    2.0360    0.0026 N.ar      1 <0>        -0.5917
      3 C2          2.2875    1.4625   -0.0119 C.ar      1 <0>         0.5085
      4 C3          2.3582    0.0588   -0.0202 C.ar      1 <0>        -0.1102
      5 C4          1.1547   -0.6659   -0.0126 C.ar      1 <0>         0.3163
      6 N2          0.0021   -0.0041    0.0020 N.ar      1 <0>        -0.5477
      7 N3          1.5110   -1.9908   -0.0227 N.pl3     1 <0>        -0.4704
      8 C5          2.8729   -2.0476   -0.0358 C.2       1 <0>         0.2645
      9 N4          3.3680   -0.8441   -0.0343 N.2       1 <0>        -0.4613
     10 C6          0.5956   -3.1347   -0.0195 C.3       1 <0>         0.3171
     11 C7          0.2584   -3.5598    1.4324 C.3       1 <0>         0.0793
     12 H1          1.1300   -3.4603    2.0792 H         1 <0>         0.0912
     13 C8         -0.1295   -5.0477    1.2528 C.3       1 <0>         0.0502
     14 H2          0.2751   -5.6484    2.0674 H         1 <0>         0.0911
     15 C9          0.5192   -5.4482   -0.0864 C.3       1 <0>         0.1068
     16 H3         -0.2527   -5.7308   -0.8023 H         1 <0>         0.1205
     17 O1          1.2398   -4.3029   -0.5715 O.3       1 <0>        -0.3424
     18 C10         1.4664   -6.6007    0.1273 C.2       1 <0>         0.0804
     19 N5          2.7064   -6.4715   -0.1605 N.2       1 <0>        -0.2957
     20 O2          3.5964   -7.5544    0.0403 O.3       1 <0>        -0.4112
     21 O3         -1.5498   -5.1898    1.1859 O.3       1 <0>        -0.5333
     22 O4         -0.8414   -2.8034    1.9428 O.3       1 <0>        -0.5204
     23 N6          3.4393    2.2295   -0.0193 N.pl3     1 <0>        -0.8177
     24 H4         -0.9693    1.8187    0.0257 H         1 <0>         0.2059
     25 H5          3.4551   -2.9572   -0.0459 H         1 <0>         0.2236
     26 H6         -0.3128   -2.8993   -0.5739 H         1 <0>         0.1279
     27 H7          1.0985   -7.5356    0.5235 H         1 <0>         0.1370
     28 H8          4.5116   -7.3622   -0.2057 H         1 <0>         0.4109
     29 H9         -1.8489   -6.1025    1.0735 H         1 <0>         0.3879
     30 H10        -1.0901   -3.0332    2.8485 H         1 <0>         0.3885
     31 H11         3.3774    3.1975   -0.0138 H         1 <0>         0.4109
     32 H12         4.3085    1.7992   -0.0299 H         1 <0>         0.4188
@<TRIPOS>BOND
     1    1    6 ar
     2    1    2 ar
     3    1   24 1
     4    2    3 ar
     5    3    4 ar
     6    3   23 1
     7    4    9 1
     8    4    5 ar
     9    5    6 ar
    10    5    7 1
    11    7    8 1
    12    7   10 1
    13    8    9 2
    14    8   25 1
    15   10   17 1
    16   10   11 1
    17   10   26 1
    18   11   12 1
    19   11   13 1
    20   11   22 1
    21   13   14 1
    22   13   15 1
    23   13   21 1
    24   15   16 1
    25   15   17 1
    26   15   18 1
    27   18   19 2
    28   18   27 1
    29   19   20 1
    30   20   28 1
    31   21   29 1
    32   22   30 1
    33   23   31 1
    34   23   32 1
@<TRIPOS>MOLECULE
CHEMBL608468__1
   32    34     0     0     0
SMALL
USER_CHARGES

@<TRIPOS>ATOM
      1 C1         -0.0158    1.3119    0.0093 C.ar      1 <0>         0.3635
      2 N1          1.0888    2.0360    0.0026 N.ar      1 <0>        -0.5924
      3 C2          2.2875    1.4625   -0.0119 C.ar      1 <0>         0.5083
      4 C3          2.3582    0.0588   -0.0202 C.ar      1 <0>        -0.1032
      5 C4          1.1547   -0.6659   -0.0126 C.ar      1 <0>         0.3052
      6 N2          0.0021   -0.0041    0.0020 N.ar      1 <0>        -0.5629
      7 N3          1.5110   -1.9908   -0.0227 N.pl3     1 <0>        -0.4615
      8 C5          2.8729   -2.0476   -0.0358 C.2       1 <0>         0.2877
      9 N4          3.3680   -0.8441   -0.0343 N.2       1 <0>        -0.4684
     10 C6          0.5956   -3.1347   -0.0195 C.3       1 <0>         0.3209
     11 C7          0.2026   -3.5130   -1.4698 C.3       1 <0>         0.0757
     12 H1         -0.6554   -2.9321   -1.8085 H         1 <0>         0.1004
     13 C8         -0.1697   -5.0104   -1.2932 C.3       1 <0>         0.0544
     14 H2         -1.2002   -5.1165   -0.9543 H         1 <0>         0.0942
     15 C9          0.8185   -5.4668   -0.1985 C.3       1 <0>         0.1137
     16 H3          1.6745   -5.9625   -0.6564 H         1 <0>         0.1292
     17 O1          1.2535   -4.2982    0.5065 O.3       1 <0>        -0.3443
     18 C10         0.1286   -6.4118    0.7513 C.2       1 <0>         0.0664
     19 N5          0.0406   -6.1191    1.9938 N.2       1 <0>        -0.2958
     20 O2         -0.6076   -7.0071    2.8862 O.3       1 <0>        -0.4134
     21 O3          0.0408   -5.7334   -2.5077 O.3       1 <0>        -0.5408
     22 O4          1.3093   -3.3581   -2.3604 O.3       1 <0>        -0.5337
     23 N6          3.4393    2.2295   -0.0193 N.pl3     1 <0>        -0.8173
     24 H4         -0.9693    1.8187    0.0257 H         1 <0>         0.2050
     25 H5          3.4551   -2.9572   -0.0459 H         1 <0>         0.2201
     26 H6         -0.2937   -2.9051    0.5675 H         1 <0>         0.1285
     27 H7         -0.2916   -7.3361    0.3831 H         1 <0>         0.1323
     28 H8         -0.6243   -6.7006    3.8031 H         1 <0>         0.4102
     29 H9         -0.1774   -6.6736   -2.4486 H         1 <0>         0.3929
     30 H10         1.1093   -3.5837   -3.2792 H         1 <0>         0.3950
     31 H11         3.3774    3.1975   -0.0138 H         1 <0>         0.4106
     32 H12         4.3085    1.7992   -0.0299 H         1 <0>         0.4193
@<TRIPOS>BOND
     1    1    6 ar
     2    1    2 ar
     3    1   24 1
     4    2    3 ar
     5    3    4 ar
     6    3   23 1
     7    4    9 1
     8    4    5 ar
     9    5    6 ar
    10    5    7 1
    11    7    8 1
    12    7   10 1
    13    8    9 2
    14    8   25 1
    15   10   17 1
    16   10   11 1
    17   10   26 1
    18   11   12 1
    19   11   13 1
    20   11   22 1
    21   13   14 1
    22   13   15 1
    23   13   21 1
    24   15   16 1
    25   15   17 1
    26   15   18 1
    27   18   19 2
    28   18   27 1
    29   19   20 1
    30   20   28 1
    31   21   29 1
    32   22   30 1
    33   23   31 1
    34   23   32 1
@<TRIPOS>MOLECULE
CHEMBL608072
   44    46     0     0     0
SMALL
USER_CHARGES

@<TRIPOS>ATOM
      1 C1         -1.1808    2.3014    0.4848 C.3       1 <0>        -0.1736
      2 C2         -0.5790    0.9373    0.1411 C.3       1 <0>         0.0859
      3 N1         -1.6457   -0.0648    0.0766 N.am      1 <0>        -0.6039
      4 C3         -2.4080   -0.2445   -1.1615 C.3       1 <0>         0.1093
      5 C4         -1.7195   -1.2939   -2.0366 C.3       1 <0>        -0.1676
      6 C5         -1.9257   -0.8214    1.1562 C.2       1 <0>         0.5056
      7 O1         -2.7545   -1.7036    1.0801 O.2       1 <0>        -0.5168
      8 C6         -1.2090   -0.5711    2.4581 C.3       1 <0>         0.0801
      9 H1         -1.0145    0.4951    2.5739 H         1 <0>         0.1269
     10 C7          0.1225   -1.3520    2.4814 C.3       1 <0>         0.0557
     11 H2          0.0908   -2.1937    1.7895 H         1 <0>         0.0958
     12 C8          0.1884   -1.8475    3.9518 C.3       1 <0>         0.0353
     13 H3          0.7583   -2.7734    4.0292 H         1 <0>         0.1005
     14 C9         -1.3131   -2.0896    4.2481 C.3       1 <0>         0.3233
     15 O2         -2.0076   -1.0409    3.5505 O.3       1 <0>        -0.3369
     16 N2         -1.5687   -1.9971    5.6876 N.pl3     1 <0>        -0.4616
     17 C10        -2.0011   -0.8934    6.3608 C.2       1 <0>         0.2846
     18 N3         -2.1225   -1.1646    7.6278 N.2       1 <0>        -0.4670
     19 C11        -1.7767   -2.4558    7.8478 C.ar      1 <0>        -0.1036
     20 C12        -1.4224   -3.0070    6.6047 C.ar      1 <0>         0.3071
     21 N4         -1.0447   -4.2798    6.5466 N.ar      1 <0>        -0.5629
     22 C13        -1.0044   -5.0181    7.6358 C.ar      1 <0>         0.3637
     23 N5         -1.3310   -4.5456    8.8248 N.ar      1 <0>        -0.5922
     24 C14        -1.7126   -3.2821    8.9824 C.ar      1 <0>         0.5086
     25 N6         -2.0540   -2.7963   10.2324 N.pl3     1 <0>        -0.8172
     26 O3          0.7280   -0.8410    4.8107 O.3       1 <0>        -0.5303
     27 O4          1.2225   -0.4908    2.1809 O.3       1 <0>        -0.5387
     28 H4         -0.3872    3.0470    0.5328 H         1 <0>         0.0717
     29 H5         -1.9000    2.5852   -0.2835 H         1 <0>         0.0596
     30 H6         -1.6840    2.2437    1.4500 H         1 <0>         0.0574
     31 H7         -0.0758    0.9950   -0.8241 H         1 <0>         0.0809
     32 H8          0.1402    0.6535    0.9093 H         1 <0>         0.1046
     33 H9         -3.4177   -0.5775   -0.9214 H         1 <0>         0.0843
     34 H10        -2.4560    0.7023   -1.6994 H         1 <0>         0.0804
     35 H11        -0.7098   -0.9608   -2.2767 H         1 <0>         0.0560
     36 H12        -1.6715   -2.2407   -1.4987 H         1 <0>         0.0588
     37 H13        -2.2867   -1.4276   -2.9577 H         1 <0>         0.0687
     38 H14        -1.6209   -3.0646    3.8703 H         1 <0>         0.1313
     39 H15        -2.2116    0.0649    5.9093 H         1 <0>         0.2200
     40 H16        -0.6929   -6.0489    7.5538 H         1 <0>         0.2052
     41 H17        -2.3417   -1.8754   10.3328 H         1 <0>         0.4193
     42 H18        -2.0056   -3.3766   11.0081 H         1 <0>         0.4107
     43 H19         1.6332   -0.5809    4.5917 H         1 <0>         0.3881
     44 H20         2.0816   -0.9346    2.1832 H         1 <0>         0.3927
@<TRIPOS>BOND
     1    1    2 1
     2    1   28 1
     3    1   29 1
     4    1   30 1
     5    2    3 1
     6    2   31 1
     7    2   32 1
     8    3    4 1
     9    3    6 am
    10    4    5 1
    11    4   33 1
    12    4   34 1
    13    5   35 1
    14    5   36 1
    15    5   37 1
    16    6    7 2
    17    6    8 1
    18    8    9 1
    19    8   15 1
    20    8   10 1
    21   10   11 1
    22   10   12 1
    23   10   27 1
    24   12   13 1
    25   12   14 1
    26   12   26 1
    27   14   15 1
    28   14   16 1
    29   14   38 1
    30   16   20 1
    31   16   17 1
    32   17   18 2
    33   17   39 1
    34   18   19 1
    35   19   24 ar
    36   19   20 ar
    37   20   21 ar
    38   21   22 ar
    39   22   23 ar
    40   22   40 1
    41   23   24 ar
    42   24   25 1
    43   25   41 1
    44   25   42 1
    45   26   43 1
    46   27   44 1
@<TRIPOS>MOLECULE
CHEMBL608072__1
   44    46     0     0     0
SMALL
USER_CHARGES

@<TRIPOS>ATOM
      1 C1         -1.2916    2.3402    0.5370 C.3       1 <0>        -0.1749
      2 C2         -0.6455    1.0042    0.1648 C.3       1 <0>         0.0883
      3 N1         -1.6776   -0.0327    0.0880 N.am      1 <0>        -0.6013
      4 C3         -2.4421   -0.2151   -1.1484 C.3       1 <0>         0.1105
      5 C4         -1.7242   -1.2233   -2.0479 C.3       1 <0>        -0.1676
      6 C5         -1.9238   -0.8188    1.1547 C.2       1 <0>         0.5259
      7 O1         -2.7222   -1.7275    1.0669 O.2       1 <0>        -0.5145
      8 C6         -1.2070   -0.5687    2.4565 C.3       1 <0>         0.0711
      9 H1         -1.0063    0.4950    2.5845 H         1 <0>         0.1176
     10 C7          0.1096   -1.3841    2.5200 C.3       1 <0>         0.0553
     11 H2         -0.0169   -2.3638    2.0592 H         1 <0>         0.0950
     12 C8          0.3359   -1.5163    4.0457 C.3       1 <0>         0.0402
     13 H3          0.6936   -2.5158    4.2932 H         1 <0>         0.0872
     14 C9         -1.0583   -1.2758    4.6566 C.3       1 <0>         0.3169
     15 O2         -1.9766   -1.0782    3.5667 O.3       1 <0>        -0.3299
     16 N2         -1.4637   -2.4409    5.4468 N.pl3     1 <0>        -0.4751
     17 C10        -2.2295   -3.4822    5.0139 C.2       1 <0>         0.2674
     18 N3         -2.3944   -4.3429    5.9760 N.2       1 <0>        -0.4595
     19 C11        -1.7468   -3.9100    7.0843 C.ar      1 <0>        -0.1079
     20 C12        -1.1372   -2.6870    6.7564 C.ar      1 <0>         0.3090
     21 N4         -0.4269   -2.0508    7.6820 N.ar      1 <0>        -0.5545
     22 C13        -0.2915   -2.5573    8.8896 C.ar      1 <0>         0.3659
     23 N5         -0.8424   -3.7040    9.2430 N.ar      1 <0>        -0.5909
     24 C14        -1.5777   -4.4071    8.3876 C.ar      1 <0>         0.5096
     25 N6         -2.1502   -5.6085    8.7670 N.pl3     1 <0>        -0.8163
     26 O3          1.2619   -0.5280    4.5016 O.3       1 <0>        -0.5292
     27 O4          1.1827   -0.6686    1.9047 O.3       1 <0>        -0.5367
     28 H4         -0.5237    3.1117    0.5942 H         1 <0>         0.0723
     29 H5         -2.0250    2.6131   -0.2218 H         1 <0>         0.0601
     30 H6         -1.7864    2.2477    1.5039 H         1 <0>         0.0567
     31 H7         -0.1508    1.0967   -0.8020 H         1 <0>         0.0819
     32 H8          0.0878    0.7313    0.9236 H         1 <0>         0.1049
     33 H9         -3.4380   -0.5872   -0.9082 H         1 <0>         0.0849
     34 H10        -2.5263    0.7396   -1.6676 H         1 <0>         0.0812
     35 H11        -0.7282   -0.8511   -2.2881 H         1 <0>         0.0564
     36 H12        -1.6399   -2.1779   -1.5286 H         1 <0>         0.0590
     37 H13        -2.2929   -1.3589   -2.9678 H         1 <0>         0.0688
     38 H14        -1.0384   -0.3867    5.2868 H         1 <0>         0.1299
     39 H15        -2.6393   -3.5786    4.0193 H         1 <0>         0.2262
     40 H16         0.2924   -2.0147    9.6183 H         1 <0>         0.2066
     41 H17        -2.6755   -6.1180    8.1302 H         1 <0>         0.4196
     42 H18        -2.0263   -5.9412    9.6697 H         1 <0>         0.4114
     43 H19         2.1403   -0.5988    4.1036 H         1 <0>         0.3884
     44 H20         2.0280   -1.1381    1.9194 H         1 <0>         0.3898
@<TRIPOS>BOND
     1    1    2 1
     2    1   28 1
     3    1   29 1
     4    1   30 1
     5    2    3 1
     6    2   31 1
     7    2   32 1
     8    3    4 1
     9    3    6 am
    10    4    5 1
    11    4   33 1
    12    4   34 1
    13    5   35 1
    14    5   36 1
    15    5   37 1
    16    6    7 2
    17    6    8 1
    18    8    9 1
    19    8   15 1
    20    8   10 1
    21   10   11 1
    22   10   12 1
    23   10   27 1
    24   12   13 1
    25   12   14 1
    26   12   26 1
    27   14   15 1
    28   14   16 1
    29   14   38 1
    30   16   20 1
    31   16   17 1
    32   17   18 2
    33   17   39 1
    34   18   19 1
    35   19   24 ar
    36   19   20 ar
    37   20   21 ar
    38   21   22 ar
    39   22   23 ar
    40   22   40 1
    41   23   24 ar
    42   24   25 1
    43   25   41 1
    44   25   42 1
    45   26   43 1
    46   27   44 1
@<TRIPOS>MOLECULE
CHEMBL605900
   38    40     0     0     0
SMALL
USER_CHARGES

@<TRIPOS>ATOM
      1 C1         -0.0187    1.5258    0.0104 C.3       1 <0>        -0.1510
      2 C2          0.0021   -0.0041    0.0020 C.3       1 <0>         0.0706
      3 O1          0.6932   -0.4774    1.1597 O.3       1 <0>        -0.2449
      4 N1          0.7692   -1.8886    1.2482 N.2       1 <0>        -0.2999
      5 C3          1.3637   -2.4364    2.2401 C.2       1 <0>         0.0678
      6 C4          1.4445   -3.9382    2.3343 C.3       1 <0>         0.1125
      7 H1          0.9480   -4.2789    3.2429 H         1 <0>         0.1288
      8 C5          2.9227   -4.3834    2.3470 C.3       1 <0>         0.0539
      9 H2          3.5610   -3.6221    1.8985 H         1 <0>         0.0950
     10 C6          2.8889   -5.6638    1.4686 C.3       1 <0>         0.0765
     11 H3          3.8475   -5.8279    0.9763 H         1 <0>         0.1006
     12 C7          1.7911   -5.2873    0.4421 C.3       1 <0>         0.3209
     13 O2          0.8218   -4.5312    1.1888 O.3       1 <0>        -0.3435
     14 N2          1.1753   -6.4963   -0.1104 N.pl3     1 <0>        -0.4612
     15 C8          0.0304   -7.0914    0.3292 C.2       1 <0>         0.2864
     16 N3         -0.2270   -8.1455   -0.3893 N.2       1 <0>        -0.4682
     17 C9          0.7336   -8.2936   -1.3330 C.ar      1 <0>        -0.1035
     18 C10         1.6420   -7.2340   -1.1688 C.ar      1 <0>         0.3066
     19 N4          2.6870   -7.1469   -1.9852 N.ar      1 <0>        -0.5628
     20 C11         2.8705   -8.0371   -2.9375 C.ar      1 <0>         0.3634
     21 N5          2.0428   -9.0474   -3.1324 N.ar      1 <0>        -0.5924
     22 C12         0.9752   -9.2214   -2.3601 C.ar      1 <0>         0.5082
     23 N6          0.1129  -10.2827   -2.5728 N.pl3     1 <0>        -0.8175
     24 O3          2.5063   -6.8058    2.2376 O.3       1 <0>        -0.5349
     25 O4          3.3517   -4.6848    3.6763 O.3       1 <0>        -0.5425
     26 H4          1.0039    1.9031    0.0027 H         1 <0>         0.0642
     27 H5         -0.5459    1.8868   -0.8726 H         1 <0>         0.0808
     28 H6         -0.5289    1.8773    0.9072 H         1 <0>         0.0645
     29 H7         -1.0205   -0.3814    0.0098 H         1 <0>         0.0588
     30 H8          0.5123   -0.3556   -0.8948 H         1 <0>         0.0580
     31 H9          1.8076   -1.8223    3.0098 H         1 <0>         0.1328
     32 H10         2.2133   -4.6778   -0.3570 H         1 <0>         0.1277
     33 H11        -0.5738   -6.7401    1.1526 H         1 <0>         0.2202
     34 H12         3.7299   -7.9372   -3.5838 H         1 <0>         0.2049
     35 H13        -0.6691  -10.3926   -2.0095 H         1 <0>         0.4192
     36 H14         0.2904  -10.9166   -3.2852 H         1 <0>         0.4106
     37 H15         3.1122   -7.0132    2.9621 H         1 <0>         0.3952
     38 H16         3.3068   -3.9339    4.2839 H         1 <0>         0.3940
@<TRIPOS>BOND
     1    1    2 1
     2    1   26 1
     3    1   27 1
     4    1   28 1
     5    2    3 1
     6    2   29 1
     7    2   30 1
     8    3    4 1
     9    4    5 2
    10    5    6 1
    11    5   31 1
    12    6    7 1
    13    6   13 1
    14    6    8 1
    15    8    9 1
    16    8   10 1
    17    8   25 1
    18   10   11 1
    19   10   12 1
    20   10   24 1
    21   12   13 1
    22   12   14 1
    23   12   32 1
    24   14   18 1
    25   14   15 1
    26   15   16 2
    27   15   33 1
    28   16   17 1
    29   17   22 ar
    30   17   18 ar
    31   18   19 ar
    32   19   20 ar
    33   20   21 ar
    34   20   34 1
    35   21   22 ar
    36   22   23 1
    37   23   35 1
    38   23   36 1
    39   24   37 1
    40   25   38 1
@<TRIPOS>MOLECULE
CHEMBL605900__1
   38    40     0     0     0
SMALL
USER_CHARGES

@<TRIPOS>ATOM
      1 C1         -0.0187    1.5258    0.0104 C.3       1 <0>        -0.1512
      2 C2          0.0021   -0.0041    0.0020 C.3       1 <0>         0.0703
      3 O1          0.6932   -0.4774    1.1597 O.3       1 <0>        -0.2426
      4 N1          0.7692   -1.8886    1.2482 N.2       1 <0>        -0.2997
      5 C3          1.3637   -2.4364    2.2401 C.2       1 <0>         0.0865
      6 C4          1.4445   -3.9382    2.3343 C.3       1 <0>         0.1038
      7 H1          0.9511   -4.2920    3.2396 H         1 <0>         0.1230
      8 C5          2.9209   -4.4087    2.2981 C.3       1 <0>         0.0535
      9 H2          3.5073   -3.7972    1.6123 H         1 <0>         0.0919
     10 C6          2.7867   -5.8576    1.7694 C.3       1 <0>         0.0814
     11 H3          3.5804   -6.0783    1.0557 H         1 <0>         0.0871
     12 C7          1.4128   -5.8794    1.0720 C.3       1 <0>         0.3134
     13 O2          0.8627   -4.5531    1.1647 O.3       1 <0>        -0.3383
     14 N2          1.5740   -6.2564   -0.3345 N.pl3     1 <0>        -0.4741
     15 C8          1.6939   -5.4020   -1.3899 C.2       1 <0>         0.2663
     16 N3          1.8215   -6.0764   -2.4956 N.2       1 <0>        -0.4603
     17 C9          1.7918   -7.4026   -2.2209 C.ar      1 <0>        -0.1085
     18 C10         1.6381   -7.5340   -0.8303 C.ar      1 <0>         0.3105
     19 N4          1.5853   -8.7508   -0.2985 N.ar      1 <0>        -0.5536
     20 C11         1.6782   -9.8205   -1.0601 C.ar      1 <0>         0.3667
     21 N5          1.8266   -9.7471   -2.3701 N.ar      1 <0>        -0.5909
     22 C12         1.8810   -8.5737   -2.9921 C.ar      1 <0>         0.5094
     23 N6          2.0378   -8.5070   -4.3654 N.pl3     1 <0>        -0.8167
     24 O3          2.8158   -6.7897    2.8522 O.3       1 <0>        -0.5329
     25 O4          3.4932   -4.3938    3.6074 O.3       1 <0>        -0.5414
     26 H4          1.0039    1.9031    0.0027 H         1 <0>         0.0643
     27 H5         -0.5459    1.8868   -0.8726 H         1 <0>         0.0811
     28 H6         -0.5289    1.8773    0.9072 H         1 <0>         0.0644
     29 H7         -1.0205   -0.3814    0.0098 H         1 <0>         0.0592
     30 H8          0.5123   -0.3556   -0.8948 H         1 <0>         0.0594
     31 H9          1.8076   -1.8223    3.0098 H         1 <0>         0.1384
     32 H10         0.7534   -6.5872    1.5742 H         1 <0>         0.1298
     33 H11         1.6840   -4.3244   -1.3190 H         1 <0>         0.2225
     34 H12         1.6315  -10.7946   -0.5960 H         1 <0>         0.2069
     35 H13         2.0874   -7.6445   -4.8066 H         1 <0>         0.4192
     36 H14         2.0982   -9.3226   -4.8869 H         1 <0>         0.4113
     37 H15         3.6381   -6.7761    3.3609 H         1 <0>         0.3969
     38 H16         3.5157   -3.5180    4.0168 H         1 <0>         0.3927
@<TRIPOS>BOND
     1    1    2 1
     2    1   26 1
     3    1   27 1
     4    1   28 1
     5    2    3 1
     6    2   29 1
     7    2   30 1
     8    3    4 1
     9    4    5 2
    10    5    6 1
    11    5   31 1
    12    6    7 1
    13    6   13 1
    14    6    8 1
    15    8    9 1
    16    8   10 1
    17    8   25 1
    18   10   11 1
    19   10   12 1
    20   10   24 1
    21   12   13 1
    22   12   14 1
    23   12   32 1
    24   14   18 1
    25   14   15 1
    26   15   16 2
    27   15   33 1
    28   16   17 1
    29   17   22 ar
    30   17   18 ar
    31   18   19 ar
    32   19   20 ar
    33   20   21 ar
    34   20   34 1
    35   21   22 ar
    36   22   23 1
    37   23   35 1
    38   23   36 1
    39   24   37 1
    40   25   38 1
@<TRIPOS>MOLECULE
CHEMBL604208
   30    32     0     0     0
SMALL
USER_CHARGES

@<TRIPOS>ATOM
      1 C1          0.0180   -1.1779   -0.0044 C.1       1 <0>        -0.1424
      2 C2          0.0021   -0.0041    0.0020 C.1       1 <0>        -0.2293
      3 C3         -0.0179    1.4678    0.0101 C.3       1 <0>         0.1747
      4 H1          1.0024    1.8513    0.0024 H         1 <0>         0.1231
      5 C4         -0.7585    1.9746    1.2663 C.3       1 <0>         0.0536
      6 H2         -1.4326    1.2107    1.6538 H         1 <0>         0.0944
      7 C5         -1.5564    3.1862    0.7121 C.3       1 <0>         0.0760
      8 H3         -2.4657    3.3550    1.2891 H         1 <0>         0.1013
      9 C6         -1.8868    2.6913   -0.7186 C.3       1 <0>         0.3200
     10 O1         -0.7271    1.9504   -1.1369 O.3       1 <0>        -0.3521
     11 N1         -2.1104    3.8307   -1.6119 N.pl3     1 <0>        -0.4622
     12 C7         -1.1858    4.4069   -2.4312 C.2       1 <0>         0.2853
     13 N2         -1.7249    5.3951   -3.0843 N.2       1 <0>        -0.4673
     14 C8         -3.0260    5.5156   -2.7267 C.ar      1 <0>        -0.1035
     15 C9         -3.2904    4.5098   -1.7816 C.ar      1 <0>         0.3066
     16 N3         -4.5132    4.4085   -1.2712 N.ar      1 <0>        -0.5630
     17 C10        -5.4670    5.2352   -1.6452 C.ar      1 <0>         0.3639
     18 N4         -5.2673    6.1931   -2.5318 N.ar      1 <0>        -0.5922
     19 C11        -4.0750    6.3768   -3.0900 C.ar      1 <0>         0.5085
     20 N5         -3.8756    7.3829   -4.0191 N.pl3     1 <0>        -0.8172
     21 O2         -0.7469    4.3633    0.6766 O.3       1 <0>        -0.5353
     22 O3          0.1693    2.3883    2.2714 O.3       1 <0>        -0.5435
     23 H4          0.0322   -2.2278   -0.0102 H         1 <0>         0.2256
     24 H5         -2.7640    2.0446   -0.7020 H         1 <0>         0.1295
     25 H6         -0.1575    4.0903   -2.5244 H         1 <0>         0.2206
     26 H7         -6.4497    5.1256   -1.2109 H         1 <0>         0.2053
     27 H8         -3.0038    7.4998   -4.4278 H         1 <0>         0.4193
     28 H9         -4.6078    7.9711   -4.2616 H         1 <0>         0.4107
     29 H10        -0.4276    4.6473    1.5441 H         1 <0>         0.3955
     30 H11         0.7495    1.6815    2.5858 H         1 <0>         0.3940
@<TRIPOS>BOND
     1    1    2 3
     2    1   23 1
     3    2    3 1
     4    3    4 1
     5    3   10 1
     6    3    5 1
     7    5    6 1
     8    5    7 1
     9    5   22 1
    10    7    8 1
    11    7    9 1
    12    7   21 1
    13    9   10 1
    14    9   11 1
    15    9   24 1
    16   11   15 1
    17   11   12 1
    18   12   13 2
    19   12   25 1
    20   13   14 1
    21   14   19 ar
    22   14   15 ar
    23   15   16 ar
    24   16   17 ar
    25   17   18 ar
    26   17   26 1
    27   18   19 ar
    28   19   20 1
    29   20   27 1
    30   20   28 1
    31   21   29 1
    32   22   30 1
@<TRIPOS>MOLECULE
CHEMBL604208__1
   30    32     0     0     0
SMALL
USER_CHARGES

@<TRIPOS>ATOM
      1 C1          0.0180   -1.1779   -0.0044 C.1       1 <0>        -0.1368
      2 C2          0.0021   -0.0041    0.0020 C.1       1 <0>        -0.2395
      3 C3         -0.0179    1.4678    0.0101 C.3       1 <0>         0.1602
      4 H1          0.9993    1.8594    0.0025 H         1 <0>         0.1380
      5 C4         -0.7853    1.9884    1.2514 C.3       1 <0>         0.0504
      6 H2         -0.6172    1.3454    2.1154 H         1 <0>         0.0962
      7 C5         -2.2532    1.8862    0.7547 C.3       1 <0>         0.0843
      8 H3         -2.6424    0.8783    0.8995 H         1 <0>         0.0911
      9 C6         -2.1140    2.2108   -0.7481 C.3       1 <0>         0.3132
     10 O1         -0.7511    1.9627   -1.1216 O.3       1 <0>        -0.3365
     11 N1         -3.0072    1.3499   -1.5274 N.pl3     1 <0>        -0.4797
     12 C7         -2.6744    0.1681   -2.1197 C.2       1 <0>         0.2590
     13 N2         -3.7101   -0.3309   -2.7294 N.2       1 <0>        -0.4601
     14 C8         -4.7705    0.4965   -2.5677 C.ar      1 <0>        -0.1111
     15 C9         -4.3337    1.5822   -1.7899 C.ar      1 <0>         0.3127
     16 N3         -5.1969    2.5442   -1.4810 N.ar      1 <0>        -0.5490
     17 C10        -6.4455    2.4832   -1.8936 C.ar      1 <0>         0.3649
     18 N4         -6.9027    1.4821   -2.6233 N.ar      1 <0>        -0.5916
     19 C11        -6.1110    0.4789   -2.9887 C.ar      1 <0>         0.5087
     20 N5         -6.5995   -0.5665   -3.7526 N.pl3     1 <0>        -0.8176
     21 O2         -3.0808    2.8478    1.4123 O.3       1 <0>        -0.5235
     22 O3         -0.4330    3.3419    1.5444 O.3       1 <0>        -0.5317
     23 H4          0.0322   -2.2278   -0.0102 H         1 <0>         0.2269
     24 H5         -2.3606    3.2577   -0.9247 H         1 <0>         0.1418
     25 H6         -1.6954   -0.2868   -2.0879 H         1 <0>         0.2156
     26 H7         -7.1213    3.2816   -1.6250 H         1 <0>         0.2062
     27 H8         -6.0146   -1.2985   -4.0035 H         1 <0>         0.4187
     28 H9         -7.5268   -0.5672   -4.0372 H         1 <0>         0.4109
     29 H10        -3.1283    2.7354    2.3716 H         1 <0>         0.3900
     30 H11         0.5023    3.4681    1.7552 H         1 <0>         0.3885
@<TRIPOS>BOND
     1    1    2 3
     2    1   23 1
     3    2    3 1
     4    3    4 1
     5    3   10 1
     6    3    5 1
     7    5    6 1
     8    5    7 1
     9    5   22 1
    10    7    8 1
    11    7    9 1
    12    7   21 1
    13    9   10 1
    14    9   11 1
    15    9   24 1
    16   11   15 1
    17   11   12 1
    18   12   13 2
    19   12   25 1
    20   13   14 1
    21   14   19 ar
    22   14   15 ar
    23   15   16 ar
    24   16   17 ar
    25   17   18 ar
    26   17   26 1
    27   18   19 ar
    28   19   20 1
    29   20   27 1
    30   20   28 1
    31   21   29 1
    32   22   30 1
@<TRIPOS>MOLECULE
CHEMBL605902
   45    48     0     0     0
SMALL
USER_CHARGES

@<TRIPOS>ATOM
      1 C1         -0.0167    1.3781    0.0096 C.ar      1 <0>        -0.1094
      2 C2          1.1709    2.0855    0.0021 C.ar      1 <0>        -0.1230
      3 C3          2.3773    1.4107   -0.0130 C.ar      1 <0>        -0.0963
      4 C4          2.3960    0.0285   -0.0201 C.ar      1 <0>        -0.0971
      5 C5          1.2084   -0.6789   -0.0117 C.ar      1 <0>        -0.0960
      6 C6          0.0021   -0.0041    0.0020 C.ar      1 <0>        -0.1228
      7 C7          3.7112   -0.7071   -0.0376 C.3       1 <0>         0.1187
      8 O1          4.1410   -0.9464    1.3041 O.3       1 <0>        -0.2373
      9 N1          5.3740   -1.6360    1.3995 N.2       1 <0>        -0.2996
     10 C8          5.8663   -1.9104    2.5483 C.2       1 <0>         0.0696
     11 C9          7.1786   -2.6443    2.6498 C.3       1 <0>         0.1127
     12 H1          7.0346   -3.5879    3.1761 H         1 <0>         0.1290
     13 C10         8.2076   -1.7755    3.4046 C.3       1 <0>         0.0539
     14 H2          7.9373   -0.7208    3.3525 H         1 <0>         0.0950
     15 C11         9.5151   -2.0507    2.6131 C.3       1 <0>         0.0765
     16 H3         10.1966   -1.2021    2.6729 H         1 <0>         0.1005
     17 C12         8.9592   -2.2203    1.1767 C.3       1 <0>         0.3210
     18 O2          7.6987   -2.8936    1.3387 O.3       1 <0>        -0.3432
     19 N2          9.8710   -3.0369    0.3717 N.pl3     1 <0>        -0.4612
     20 C13         9.7778   -4.3805    0.1614 C.2       1 <0>         0.2863
     21 N3         10.7528   -4.7796   -0.6027 N.2       1 <0>        -0.4682
     22 C14        11.5313   -3.7206   -0.9305 C.ar      1 <0>        -0.1035
     23 C15        10.9718   -2.5887   -0.3136 C.ar      1 <0>         0.3067
     24 N4         11.5526   -1.4059   -0.4857 N.ar      1 <0>        -0.5628
     25 C16        12.6356   -1.2915   -1.2254 C.ar      1 <0>         0.3633
     26 N5         13.1954   -2.3251   -1.8271 N.ar      1 <0>        -0.5924
     27 C17        12.6905   -3.5486   -1.7057 C.ar      1 <0>         0.5082
     28 N6         13.2837   -4.6255   -2.3410 N.pl3     1 <0>        -0.8175
     29 O3         10.1487   -3.2489    3.0658 O.3       1 <0>        -0.5348
     30 O4          8.3320   -2.1997    4.7635 O.3       1 <0>        -0.5424
     31 H4         -0.9591    1.9053    0.0259 H         1 <0>         0.1252
     32 H5          1.1563    3.1654    0.0076 H         1 <0>         0.1260
     33 H6          3.3051    1.9634   -0.0196 H         1 <0>         0.1237
     34 H7          1.2231   -1.7588   -0.0176 H         1 <0>         0.1240
     35 H8         -0.9258   -0.5567    0.0082 H         1 <0>         0.1261
     36 H9          3.5884   -1.6586   -0.5549 H         1 <0>         0.0684
     37 H10         4.4573   -0.1052   -0.5563 H         1 <0>         0.0676
     38 H11         5.3414   -1.6160    3.4450 H         1 <0>         0.1330
     39 H12         8.8114   -1.2460    0.7108 H         1 <0>         0.1277
     40 H13         9.0086   -5.0197    0.5691 H         1 <0>         0.2202
     41 H14        13.0828   -0.3157   -1.3448 H         1 <0>         0.2049
     42 H15        12.8993   -5.5119   -2.2539 H         1 <0>         0.4192
     43 H16        14.0837   -4.4940   -2.8734 H         1 <0>         0.4105
     44 H17        10.4166   -3.2254    3.9946 H         1 <0>         0.3952
     45 H18         7.5143   -2.1274    5.2746 H         1 <0>         0.3940
@<TRIPOS>BOND
     1    1    6 ar
     2    1    2 ar
     3    1   31 1
     4    2    3 ar
     5    2   32 1
     6    3    4 ar
     7    3   33 1
     8    4    5 ar
     9    4    7 1
    10    5    6 ar
    11    5   34 1
    12    6   35 1
    13    7    8 1
    14    7   36 1
    15    7   37 1
    16    8    9 1
    17    9   10 2
    18   10   11 1
    19   10   38 1
    20   11   12 1
    21   11   18 1
    22   11   13 1
    23   13   14 1
    24   13   15 1
    25   13   30 1
    26   15   16 1
    27   15   17 1
    28   15   29 1
    29   17   18 1
    30   17   19 1
    31   17   39 1
    32   19   23 1
    33   19   20 1
    34   20   21 2
    35   20   40 1
    36   21   22 1
    37   22   27 ar
    38   22   23 ar
    39   23   24 ar
    40   24   25 ar
    41   25   26 ar
    42   25   41 1
    43   26   27 ar
    44   27   28 1
    45   28   42 1
    46   28   43 1
    47   29   44 1
    48   30   45 1
@<TRIPOS>MOLECULE
CHEMBL605902__1
   45    48     0     0     0
SMALL
USER_CHARGES

@<TRIPOS>ATOM
      1 C1         -0.0167    1.3781    0.0096 C.ar      1 <0>        -0.1092
      2 C2          1.1709    2.0855    0.0021 C.ar      1 <0>        -0.1231
      3 C3          2.3773    1.4107   -0.0130 C.ar      1 <0>        -0.0960
      4 C4          2.3960    0.0285   -0.0201 C.ar      1 <0>        -0.0974
      5 C5          1.2084   -0.6789   -0.0117 C.ar      1 <0>        -0.0959
      6 C6          0.0021   -0.0041    0.0020 C.ar      1 <0>        -0.1228
      7 C7          3.7112   -0.7071   -0.0376 C.3       1 <0>         0.1183
      8 O1          4.1410   -0.9464    1.3041 O.3       1 <0>        -0.2351
      9 N1          5.3740   -1.6360    1.3995 N.2       1 <0>        -0.2994
     10 C8          5.8663   -1.9104    2.5483 C.2       1 <0>         0.0884
     11 C9          7.1786   -2.6443    2.6498 C.3       1 <0>         0.1039
     12 H1          7.0481   -3.5907    3.1746 H         1 <0>         0.1232
     13 C10         8.2406   -1.7677    3.3612 C.3       1 <0>         0.0535
     14 H2          8.1352   -0.7209    3.0762 H         1 <0>         0.0920
     15 C11         9.5648   -2.3575    2.8177 C.3       1 <0>         0.0814
     16 H3         10.2772   -1.5611    2.6025 H         1 <0>         0.0871
     17 C12         9.1526   -3.0780    1.5194 C.3       1 <0>         0.3136
     18 O2          7.7414   -2.8636    1.3384 O.3       1 <0>        -0.3381
     19 N2          9.8924   -2.5210    0.3842 N.pl3     1 <0>        -0.4741
     20 C13         9.4627   -1.5344   -0.4527 C.2       1 <0>         0.2662
     21 N3         10.3719   -1.2852   -1.3499 N.2       1 <0>        -0.4601
     22 C14        11.4397   -2.0936   -1.1465 C.ar      1 <0>        -0.1086
     23 C15        11.1471   -2.8925   -0.0280 C.ar      1 <0>         0.3106
     24 N4         12.0474   -3.7777    0.3867 N.ar      1 <0>        -0.5537
     25 C16        13.1996   -3.9054   -0.2371 C.ar      1 <0>         0.3667
     26 N5         13.5206   -3.1753   -1.2895 N.ar      1 <0>        -0.5909
     27 C17        12.6805   -2.2705   -1.7817 C.ar      1 <0>         0.5094
     28 N6         13.0262   -1.5093   -2.8846 N.pl3     1 <0>        -0.8168
     29 O3         10.1203   -3.2846    3.7526 O.3       1 <0>        -0.5329
     30 O4          8.1588   -1.9182    4.7799 O.3       1 <0>        -0.5413
     31 H4         -0.9591    1.9053    0.0259 H         1 <0>         0.1251
     32 H5          1.1563    3.1654    0.0076 H         1 <0>         0.1259
     33 H6          3.3051    1.9634   -0.0196 H         1 <0>         0.1240
     34 H7          1.2231   -1.7588   -0.0176 H         1 <0>         0.1240
     35 H8         -0.9258   -0.5567    0.0082 H         1 <0>         0.1260
     36 H9          3.5884   -1.6586   -0.5549 H         1 <0>         0.0688
     37 H10         4.4573   -0.1052   -0.5563 H         1 <0>         0.0691
     38 H11         5.3414   -1.6160    3.4450 H         1 <0>         0.1386
     39 H12         9.3542   -4.1455    1.6079 H         1 <0>         0.1298
     40 H13         8.5084   -1.0337   -0.3818 H         1 <0>         0.2225
     41 H14        13.9091   -4.6343    0.1258 H         1 <0>         0.2068
     42 H15        12.4090   -0.8443   -3.2277 H         1 <0>         0.4192
     43 H16        13.8857   -1.6408   -3.3145 H         1 <0>         0.4113
     44 H17        10.3442   -2.8938    4.6083 H         1 <0>         0.3969
     45 H18         7.3109   -1.6453    5.1561 H         1 <0>         0.3928
@<TRIPOS>BOND
     1    1    6 ar
     2    1    2 ar
     3    1   31 1
     4    2    3 ar
     5    2   32 1
     6    3    4 ar
     7    3   33 1
     8    4    5 ar
     9    4    7 1
    10    5    6 ar
    11    5   34 1
    12    6   35 1
    13    7    8 1
    14    7   36 1
    15    7   37 1
    16    8    9 1
    17    9   10 2
    18   10   11 1
    19   10   38 1
    20   11   12 1
    21   11   18 1
    22   11   13 1
    23   13   14 1
    24   13   15 1
    25   13   30 1
    26   15   16 1
    27   15   17 1
    28   15   29 1
    29   17   18 1
    30   17   19 1
    31   17   39 1
    32   19   23 1
    33   19   20 1
    34   20   21 2
    35   20   40 1
    36   21   22 1
    37   22   27 ar
    38   22   23 ar
    39   23   24 ar
    40   24   25 ar
    41   25   26 ar
    42   25   41 1
    43   26   27 ar
    44   27   28 1
    45   28   42 1
    46   28   43 1
    47   29   44 1
    48   30   45 1
@<TRIPOS>MOLECULE
CHEMBL49737
   27    28     0     0     0
SMALL
USER_CHARGES

@<TRIPOS>ATOM
      1 C1         -0.4941    1.8251    0.2093 C.ar      1 <0>        -0.2307
      2 C2          0.5649    2.6865    0.2729 C.ar      1 <0>         0.1579
      3 N1          1.8134    2.2474    0.2926 N.ar      1 <0>        -0.5620
      4 C3          2.1093    0.9590    0.2526 C.ar      1 <0>         0.4782
      5 C4          1.0819    0.0057    0.1869 C.ar      1 <0>        -0.0656
      6 C5         -0.2501    0.4544    0.1647 C.ar      1 <0>         0.1203
      7 N2         -1.0321   -0.6737    0.0987 N.pl3     1 <0>        -0.4799
      8 C6         -0.1939   -1.7480    0.0825 C.2       1 <0>         0.2405
      9 N3          1.0435   -1.3485    0.1352 N.2       1 <0>        -0.4693
     10 C7         -2.4959   -0.7140    0.0547 C.3       1 <0>         0.1317
     11 C8         -2.9604   -0.5498   -1.3695 C.2       1 <0>        -0.1754
     12 C9         -3.7770   -1.4276   -1.8975 C.2       1 <0>        -0.1244
     13 C10        -4.3753   -2.5120   -1.0388 C.3       1 <0>         0.0920
     14 O1         -5.7660   -2.6446   -1.3394 O.3       1 <0>        -0.5671
     15 N4          3.4361    0.5500    0.2753 N.pl3     1 <0>        -0.8337
     16 H1         -1.5062    2.2017    0.1982 H         1 <0>         0.1293
     17 H2          0.3789    3.7498    0.3076 H         1 <0>         0.1618
     18 H3         -0.5101   -2.7795    0.0345 H         1 <0>         0.2135
     19 H4         -2.8449   -1.6710    0.4427 H         1 <0>         0.1065
     20 H5         -2.9001    0.0943    0.6642 H         1 <0>         0.1011
     21 H6         -2.6201    0.2916   -1.9549 H         1 <0>         0.1247
     22 H7         -4.0214   -1.3742   -2.9481 H         1 <0>         0.1257
     23 H8         -3.8684   -3.4558   -1.2399 H         1 <0>         0.0605
     24 H9         -4.2541   -2.2512    0.0126 H         1 <0>         0.0572
     25 H10        -6.2168   -3.3264   -0.8226 H         1 <0>         0.3857
     26 H11         4.1462    1.2092    0.3204 H         1 <0>         0.4065
     27 H12         3.6529   -0.3951    0.2459 H         1 <0>         0.4149
@<TRIPOS>BOND
     1    1    6 ar
     2    1    2 ar
     3    1   16 1
     4    2    3 ar
     5    2   17 1
     6    3    4 ar
     7    4    5 ar
     8    4   15 1
     9    5    9 1
    10    5    6 ar
    11    6    7 1
    12    7    8 1
    13    7   10 1
    14    8    9 2
    15    8   18 1
    16   10   11 1
    17   10   19 1
    18   10   20 1
    19   11   12 2
    20   11   21 1
    21   12   13 1
    22   12   22 1
    23   13   14 1
    24   13   23 1
    25   13   24 1
    26   14   25 1
    27   15   26 1
    28   15   27 1
@<TRIPOS>MOLECULE
CHEMBL296392
   36    38     0     0     0
SMALL
USER_CHARGES

@<TRIPOS>ATOM
      1 C1         -0.0187    1.5258    0.0104 C.3       1 <0>        -0.1516
      2 C2          0.0021   -0.0041    0.0020 C.3       1 <0>        -0.1158
      3 C3          0.7182   -0.4975   -1.2568 C.3       1 <0>        -0.0808
      4 H1          1.7086   -0.0485   -1.3319 H         1 <0>         0.0969
      5 C4          0.8227   -2.0428   -1.2505 C.3       1 <0>        -0.1258
      6 C5          0.9775   -2.3811   -2.7541 C.3       1 <0>         0.1452
      7 H2          2.0096   -2.2363   -3.0733 H         1 <0>         0.1275
      8 C6          0.0465   -1.3776   -3.4654 C.3       1 <0>         0.0586
      9 H3         -0.9225   -1.8384   -3.6570 H         1 <0>         0.0704
     10 C7         -0.1167   -0.1768   -2.5137 C.3       1 <0>         0.0779
     11 H4         -1.1657   -0.0546   -2.2440 H         1 <0>         0.0723
     12 O1          0.3714    1.0139   -3.1350 O.3       1 <0>        -0.5424
     13 O2          0.6361   -0.9494   -4.6947 O.3       1 <0>        -0.5424
     14 N1          0.5491   -3.7572   -3.0168 N.pl3     1 <0>        -0.4632
     15 C8         -0.6937   -4.2714   -2.7947 C.2       1 <0>         0.2433
     16 N2         -0.7245   -5.5254   -3.1411 N.2       1 <0>        -0.4576
     17 C9          0.4931   -5.8948   -3.6061 C.ar      1 <0>        -0.1143
     18 C10         1.3234   -4.7632   -3.5371 C.ar      1 <0>         0.3093
     19 N3          2.5843   -4.8614   -3.9452 N.ar      1 <0>        -0.5581
     20 C11         3.0520   -6.0004   -4.4110 C.ar      1 <0>         0.3665
     21 N4          2.3095   -7.0889   -4.4980 N.ar      1 <0>        -0.5931
     22 C12         1.0396   -7.0890   -4.1056 C.ar      1 <0>         0.5097
     23 N5          0.2690   -8.2345   -4.2017 N.pl3     1 <0>        -0.8176
     24 H5          1.0039    1.9031    0.0027 H         1 <0>         0.0561
     25 H6         -0.5459    1.8868   -0.8726 H         1 <0>         0.0586
     26 H7         -0.5289    1.8773    0.9072 H         1 <0>         0.0537
     27 H8          0.5293   -0.3651    0.8851 H         1 <0>         0.0698
     28 H9         -1.0205   -0.3814    0.0098 H         1 <0>         0.0642
     29 H10         1.6984   -2.3685   -0.6891 H         1 <0>         0.0909
     30 H11        -0.0853   -2.4897   -0.8455 H         1 <0>         0.0846
     31 H12        -0.1131    1.2687   -3.9320 H         1 <0>         0.3746
     32 H13         0.0980   -0.3164   -5.1895 H         1 <0>         0.3790
     33 H14        -1.5295   -3.7195   -2.3905 H         1 <0>         0.2183
     34 H15         4.0814   -6.0462   -4.7343 H         1 <0>         0.2055
     35 H16        -0.6599   -8.2190   -3.9226 H         1 <0>         0.4187
     36 H17         0.6577   -9.0529   -4.5482 H         1 <0>         0.4109
@<TRIPOS>BOND
     1    1    2 1
     2    1   24 1
     3    1   25 1
     4    1   26 1
     5    2    3 1
     6    2   27 1
     7    2   28 1
     8    3    4 1
     9    3   10 1
    10    3    5 1
    11    5    6 1
    12    5   29 1
    13    5   30 1
    14    6    7 1
    15    6    8 1
    16    6   14 1
    17    8    9 1
    18    8   10 1
    19    8   13 1
    20   10   11 1
    21   10   12 1
    22   12   31 1
    23   13   32 1
    24   14   18 1
    25   14   15 1
    26   15   16 2
    27   15   33 1
    28   16   17 1
    29   17   22 ar
    30   17   18 ar
    31   18   19 ar
    32   19   20 ar
    33   20   21 ar
    34   20   34 1
    35   21   22 ar
    36   22   23 1
    37   23   35 1
    38   23   36 1
@<TRIPOS>MOLECULE
CHEMBL1098945
   50    53     0     0     0
SMALL
USER_CHARGES

@<TRIPOS>ATOM
      1 C1         -0.0167    1.3781    0.0096 C.ar      1 <0>        -0.1146
      2 C2          1.1738    2.0897    0.0021 C.ar      1 <0>         0.1436
      3 C3          2.3854    1.4155   -0.0135 C.ar      1 <0>        -0.2136
      4 C4          2.4059    0.0302   -0.0211 C.ar      1 <0>         0.1221
      5 C5          1.2104   -0.6814   -0.0131 C.ar      1 <0>         0.0602
      6 C6          0.0021   -0.0041    0.0020 C.ar      1 <0>        -0.0904
      7 C7         -1.2930   -0.7747    0.0102 C.3       1 <0>         0.1591
      8 N1         -1.6380   -1.1352    1.3876 N.pl3     1 <0>        -0.4669
      9 C8         -1.3454   -2.3117    2.0108 C.2       1 <0>         0.2448
     10 N2         -1.7996   -2.2939    3.2303 N.2       1 <0>        -0.4595
     11 C9         -2.4107   -1.1082    3.4665 C.ar      1 <0>        -0.1141
     12 C10        -2.3096   -0.3483    2.2888 C.ar      1 <0>         0.3070
     13 N3         -2.8326    0.8731    2.2613 N.ar      1 <0>        -0.5562
     14 C11        -3.4352    1.3689    3.3214 C.ar      1 <0>         0.3660
     15 N4         -3.5519    0.6945    4.4507 N.ar      1 <0>        -0.5933
     16 C12        -3.0678   -0.5376    4.5697 C.ar      1 <0>         0.5092
     17 N5         -3.1939   -1.2362    5.7577 N.pl3     1 <0>        -0.8179
     18 O1          1.2280   -2.0420   -0.0209 O.3       1 <0>        -0.4808
     19 O2          3.5930   -0.6330   -0.0369 O.3       1 <0>        -0.4841
     20 O3          1.1528    3.4493    0.0095 O.3       1 <0>        -0.3036
     21 C13         2.4158    4.1177    0.0011 C.3       1 <0>         0.0609
     22 C14         2.1920    5.6312    0.0113 C.3       1 <0>        -0.0844
     23 C15         1.5019    6.0534   -1.2873 C.3       1 <0>        -0.1137
     24 C16         1.2780    7.5669   -1.2771 C.3       1 <0>        -0.1205
     25 C17         2.6261    8.2811   -1.1604 C.3       1 <0>        -0.1223
     26 C18         3.3162    7.8588    0.1382 C.3       1 <0>        -0.1181
     27 C19         3.5400    6.3453    0.1280 C.3       1 <0>        -0.1131
     28 H1         -0.9595    1.9045    0.0259 H         1 <0>         0.1461
     29 H2          3.3123    1.9698   -0.0201 H         1 <0>         0.1406
     30 H3         -2.0855   -0.1577   -0.4133 H         1 <0>         0.1096
     31 H4         -1.1804   -1.6807   -0.5852 H         1 <0>         0.1180
     32 H5         -0.8152   -3.1371    1.5591 H         1 <0>         0.2215
     33 H6         -3.8494    2.3648    3.2656 H         1 <0>         0.2045
     34 H7         -2.8265   -2.1305    5.8358 H         1 <0>         0.4187
     35 H8         -3.6497   -0.8315    6.5123 H         1 <0>         0.4108
     36 H9          1.2421   -2.4403    0.8601 H         1 <0>         0.3814
     37 H10         3.9454   -0.8296    0.8419 H         1 <0>         0.3912
     38 H11         2.9858    3.8287    0.8841 H         1 <0>         0.0628
     39 H12         2.9688    3.8382   -0.8957 H         1 <0>         0.0649
     40 H13         1.5638    5.8998    0.8606 H         1 <0>         0.0831
     41 H14         2.1301    5.7848   -2.1366 H         1 <0>         0.0614
     42 H15         0.5415    5.5447   -1.3705 H         1 <0>         0.0702
     43 H16         0.7864    7.8678   -2.2023 H         1 <0>         0.0634
     44 H17         0.6498    7.8356   -0.4278 H         1 <0>         0.0628
     45 H18         3.2543    8.0124   -2.0097 H         1 <0>         0.0617
     46 H19         2.4666    9.3593   -1.1531 H         1 <0>         0.0625
     47 H20         4.2766    8.3676    0.2213 H         1 <0>         0.0649
     48 H21         2.6880    8.1275    0.9875 H         1 <0>         0.0637
     49 H22         4.0317    6.0445    1.0531 H         1 <0>         0.0647
     50 H23         4.1683    6.0767   -0.7213 H         1 <0>         0.0657
@<TRIPOS>BOND
     1    1    6 ar
     2    1    2 ar
     3    1   28 1
     4    2    3 ar
     5    2   20 1
     6    3    4 ar
     7    3   29 1
     8    4    5 ar
     9    4   19 1
    10    5    6 ar
    11    5   18 1
    12    6    7 1
    13    7    8 1
    14    7   30 1
    15    7   31 1
    16    8   12 1
    17    8    9 1
    18    9   10 2
    19    9   32 1
    20   10   11 1
    21   11   16 ar
    22   11   12 ar
    23   12   13 ar
    24   13   14 ar
    25   14   15 ar
    26   14   33 1
    27   15   16 ar
    28   16   17 1
    29   17   34 1
    30   17   35 1
    31   18   36 1
    32   19   37 1
    33   20   21 1
    34   21   22 1
    35   21   38 1
    36   21   39 1
    37   22   27 1
    38   22   23 1
    39   22   40 1
    40   23   24 1
    41   23   41 1
    42   23   42 1
    43   24   25 1
    44   24   43 1
    45   24   44 1
    46   25   26 1
    47   25   45 1
    48   25   46 1
    49   26   27 1
    50   26   47 1
    51   26   48 1
    52   27   49 1
    53   27   50 1
@<TRIPOS>MOLECULE
CHEMBL298115
   28    29     0     0     0
SMALL
USER_CHARGES

@<TRIPOS>ATOM
      1 C1         -0.2010    1.4874    0.0183 C.3       1 <0>        -0.1298
      2 C2         -0.0873   -0.0152    0.0085 C.2       1 <0>        -0.0981
      3 C3          0.1206   -0.6637    1.1276 C.2       1 <0>        -0.1971
      4 C4          0.1232    0.0784    2.4392 C.3       1 <0>         0.1430
      5 N1         -0.8365   -0.5442    3.3544 N.pl3     1 <0>        -0.4661
      6 C5         -2.1310   -0.1631    3.5475 C.2       1 <0>         0.2519
      7 N2         -2.6947   -0.9349    4.4308 N.2       1 <0>        -0.4639
      8 C6         -1.8005   -1.8577    4.8595 C.ar      1 <0>        -0.1130
      9 C7         -0.5990   -1.6216    4.1700 C.ar      1 <0>         0.3022
     10 N3          0.4478   -2.4046    4.4095 N.ar      1 <0>        -0.5589
     11 C8          0.3634   -3.3904    5.2778 C.ar      1 <0>         0.3636
     12 N4         -0.7443   -3.6529    5.9469 N.ar      1 <0>        -0.5939
     13 C9         -1.8395   -2.9185    5.7801 C.ar      1 <0>         0.5086
     14 N5         -2.9962   -3.2019    6.4851 N.pl3     1 <0>        -0.8180
     15 C10        -0.2128   -0.7719   -1.2887 C.3       1 <0>        -0.1226
     16 H1          0.6846    1.9157    0.4879 H         1 <0>         0.0709
     17 H2         -0.2818    1.8524   -1.0055 H         1 <0>         0.0687
     18 H3         -1.0879    1.7811    0.5798 H         1 <0>         0.0707
     19 H4          0.2902   -1.7302    1.1102 H         1 <0>         0.1160
     20 H5          1.1206    0.0392    2.8769 H         1 <0>         0.1016
     21 H6         -0.1585    1.1176    2.2692 H         1 <0>         0.1044
     22 H7         -2.6170    0.6584    3.0422 H         1 <0>         0.2205
     23 H8          1.2328   -4.0080    5.4491 H         1 <0>         0.2045
     24 H9         -3.7924   -2.6656    6.3464 H         1 <0>         0.4188
     25 H10        -3.0106   -3.9369    7.1180 H         1 <0>         0.4105
     26 H11         0.7716   -0.8766   -1.7449 H         1 <0>         0.0718
     27 H12        -0.6301   -1.7599   -1.0941 H         1 <0>         0.0644
     28 H13        -0.8707   -0.2265   -1.9653 H         1 <0>         0.0689
@<TRIPOS>BOND
     1    1    2 1
     2    1   16 1
     3    1   17 1
     4    1   18 1
     5    2    3 2
     6    2   15 1
     7    3    4 1
     8    3   19 1
     9    4    5 1
    10    4   20 1
    11    4   21 1
    12    5    9 1
    13    5    6 1
    14    6    7 2
    15    6   22 1
    16    7    8 1
    17    8   13 ar
    18    8    9 ar
    19    9   10 ar
    20   10   11 ar
    21   11   12 ar
    22   11   23 1
    23   12   13 ar
    24   13   14 1
    25   14   24 1
    26   14   25 1
    27   15   26 1
    28   15   27 1
    29   15   28 1
@<TRIPOS>MOLECULE
CHEMBL297437
   28    30     0     0     0
SMALL
USER_CHARGES

@<TRIPOS>ATOM
      1 C1         -0.0158    1.3119    0.0093 C.ar      1 <0>         0.3544
      2 N1          1.0888    2.0360    0.0026 N.ar      1 <0>        -0.5962
      3 C2          2.2875    1.4625   -0.0119 C.ar      1 <0>         0.5056
      4 C3          2.3582    0.0588   -0.0202 C.ar      1 <0>        -0.1056
      5 C4          1.1547   -0.6659   -0.0126 C.ar      1 <0>         0.3027
      6 N2          0.0021   -0.0041    0.0020 N.ar      1 <0>        -0.5510
      7 N3          1.5110   -1.9908   -0.0227 N.pl3     1 <0>        -0.4670
      8 C5          2.8729   -2.0476   -0.0358 C.2       1 <0>         0.2707
      9 N4          3.3680   -0.8441   -0.0343 N.2       1 <0>        -0.4692
     10 C6          0.5956   -3.1347   -0.0195 C.3       1 <0>         0.3022
     11 H1         -0.2855   -2.9205    0.5853 H         1 <0>         0.1443
     12 C7          0.1888   -3.5174   -1.4676 C.3       1 <0>         0.0421
     13 H2          0.1084   -2.6330   -2.0998 H         1 <0>         0.0548
     14 C8          1.3925   -4.3974   -1.8892 C.3       1 <0>         0.1522
     15 H3          2.0977   -3.8193   -2.4864 H         1 <0>         0.0003
     16 C9          2.0246   -4.8119   -0.5741 C.2       1 <0>        -0.0089
     17 C10         3.1254   -5.5245   -0.4419 C.2       1 <0>        -0.0515
     18 F1          3.7905   -5.9499   -1.5382 F         1 <0>        -0.1387
     19 O1          1.2641   -4.3233    0.4536 O.3       1 <0>        -0.2904
     20 O2          0.9448   -5.5435   -2.6159 O.3       1 <0>        -0.8521
     21 O3         -1.0276   -4.2673   -1.4796 O.3       1 <0>        -0.5442
     22 N5          3.4393    2.2295   -0.0193 N.pl3     1 <0>        -0.8217
     23 H4         -0.9693    1.8187    0.0257 H         1 <0>         0.2028
     24 H5          3.4551   -2.9572   -0.0459 H         1 <0>         0.2186
     25 H6          3.4958   -5.7684    0.5429 H         1 <0>         0.1324
     26 H7         -1.3201   -4.5282   -2.3636 H         1 <0>         0.3883
     27 H8          3.3774    3.1975   -0.0138 H         1 <0>         0.4072
     28 H9          4.3085    1.7992   -0.0299 H         1 <0>         0.4178
@<TRIPOS>BOND
     1    1    6 ar
     2    1    2 ar
     3    1   23 1
     4    2    3 ar
     5    3    4 ar
     6    3   22 1
     7    4    9 1
     8    4    5 ar
     9    5    6 ar
    10    5    7 1
    11    7    8 1
    12    7   10 1
    13    8    9 2
    14    8   24 1
    15   10   11 1
    16   10   19 1
    17   10   12 1
    18   12   13 1
    19   12   14 1
    20   12   21 1
    21   14   15 1
    22   14   16 1
    23   14   20 1
    24   16   17 2
    25   16   19 1
    26   17   18 1
    27   17   25 1
    28   21   26 1
    29   22   27 1
    30   22   28 1
@<TRIPOS>MOLECULE
CHEMBL297437__1
   29    31     0     0     0
SMALL
USER_CHARGES

@<TRIPOS>ATOM
      1 C1         -0.0158    1.3119    0.0093 C.ar      1 <0>         0.3724
      2 N1          1.0888    2.0360    0.0026 N.ar      1 <0>        -0.5898
      3 C2          2.2875    1.4625   -0.0119 C.ar      1 <0>         0.5133
      4 C3          2.3582    0.0588   -0.0202 C.ar      1 <0>        -0.1098
      5 C4          1.1547   -0.6659   -0.0126 C.ar      1 <0>         0.3118
      6 N2          0.0021   -0.0041    0.0020 N.ar      1 <0>        -0.5599
      7 N3          1.5110   -1.9908   -0.0227 N.pl3     1 <0>        -0.4858
      8 C5          2.8729   -2.0476   -0.0358 C.2       1 <0>         0.2501
      9 N4          3.3680   -0.8441   -0.0343 N.2       1 <0>        -0.4487
     10 C6          0.5956   -3.1347   -0.0195 C.3       1 <0>         0.3117
     11 H1         -0.2855   -2.9205    0.5853 H         1 <0>         0.1672
     12 C7          0.1888   -3.5174   -1.4676 C.3       1 <0>         0.0884
     13 H2          0.1084   -2.6330   -2.0998 H         1 <0>         0.0975
     14 C8          1.3925   -4.3974   -1.8892 C.3       1 <0>         0.0812
     15 H3          2.0977   -3.8193   -2.4864 H         1 <0>         0.0922
     16 C9          2.0246   -4.8119   -0.5741 C.2       1 <0>        -0.0508
     17 C10         3.1254   -5.5245   -0.4419 C.2       1 <0>         0.0193
     18 F1          3.7905   -5.9499   -1.5382 F         1 <0>        -0.1308
     19 O1          1.2641   -4.3233    0.4536 O.3       1 <0>        -0.2661
     20 O2          0.9448   -5.5435   -2.6159 O.3       1 <0>        -0.5357
     21 O3         -1.0276   -4.2673   -1.4796 O.3       1 <0>        -0.5289
     22 N5          3.4393    2.2295   -0.0193 N.pl3     1 <0>        -0.8143
     23 H4         -0.9693    1.8187    0.0257 H         1 <0>         0.2090
     24 H5          3.4551   -2.9572   -0.0459 H         1 <0>         0.2164
     25 H6          3.4958   -5.7684    0.5429 H         1 <0>         0.1672
     26 H7          1.6578   -6.1295   -2.9044 H         1 <0>         0.3909
     27 H8         -1.3201   -4.5282   -2.3636 H         1 <0>         0.3994
     28 H9          3.3774    3.1975   -0.0138 H         1 <0>         0.4126
     29 H10         4.3085    1.7992   -0.0299 H         1 <0>         0.4200
@<TRIPOS>BOND
     1    1    6 ar
     2    1    2 ar
     3    1   23 1
     4    2    3 ar
     5    3    4 ar
     6    3   22 1
     7    4    9 1
     8    4    5 ar
     9    5    6 ar
    10    5    7 1
    11    7    8 1
    12    7   10 1
    13    8    9 2
    14    8   24 1
    15   10   11 1
    16   10   19 1
    17   10   12 1
    18   12   13 1
    19   12   14 1
    20   12   21 1
    21   14   15 1
    22   14   16 1
    23   14   20 1
    24   16   17 2
    25   16   19 1
    26   17   18 1
    27   17   25 1
    28   20   26 1
    29   21   27 1
    30   22   28 1
    31   22   29 1
@<TRIPOS>MOLECULE
CHEMBL299961
   28    30     0     0     0
SMALL
USER_CHARGES

@<TRIPOS>ATOM
      1 C1         -0.0158    1.3119    0.0093 C.ar      1 <0>         0.3685
      2 N1          1.0888    2.0360    0.0026 N.ar      1 <0>        -0.5923
      3 C2          2.2875    1.4625   -0.0119 C.ar      1 <0>         0.5110
      4 C3          2.3582    0.0588   -0.0202 C.ar      1 <0>        -0.1127
      5 C4          1.1547   -0.6659   -0.0126 C.ar      1 <0>         0.3077
      6 N2          0.0021   -0.0041    0.0020 N.ar      1 <0>        -0.5592
      7 N3          1.5110   -1.9908   -0.0227 N.pl3     1 <0>        -0.4612
      8 C5          2.8729   -2.0476   -0.0358 C.2       1 <0>         0.2468
      9 N4          3.3680   -0.8441   -0.0343 N.2       1 <0>        -0.4556
     10 C6          0.5956   -3.1347   -0.0195 C.3       1 <0>         0.1625
     11 H1         -0.4389   -2.7921    0.0048 H         1 <0>         0.1320
     12 C7          0.8804   -4.0334    1.1613 C.2       1 <0>        -0.1567
     13 C8          1.5493   -5.0927    0.7951 C.2       1 <0>        -0.1642
     14 C9          1.8222   -5.0771   -0.6910 C.3       1 <0>         0.0867
     15 H2          2.8527   -4.7795   -0.8847 H         1 <0>         0.0792
     16 C10         0.8398   -4.0234   -1.2612 C.3       1 <0>         0.1077
     17 H3          1.3006   -3.4520   -2.0669 H         1 <0>         0.0823
     18 O1         -0.3741   -4.6369   -1.6995 O.3       1 <0>        -0.5372
     19 O2          1.5611   -6.3622   -1.2586 O.3       1 <0>        -0.5511
     20 N5          3.4393    2.2295   -0.0193 N.pl3     1 <0>        -0.8165
     21 H4         -0.9693    1.8187    0.0257 H         1 <0>         0.2067
     22 H5          3.4551   -2.9572   -0.0459 H         1 <0>         0.2162
     23 H6          0.5713   -3.8263    2.1752 H         1 <0>         0.1426
     24 H7          1.8664   -5.8772    1.4662 H         1 <0>         0.1435
     25 H8         -0.2702   -5.2039   -2.4759 H         1 <0>         0.3950
     26 H9          2.1149   -7.0699   -0.9013 H         1 <0>         0.3876
     27 H10         3.3774    3.1975   -0.0138 H         1 <0>         0.4115
     28 H11         4.3085    1.7992   -0.0299 H         1 <0>         0.4191
@<TRIPOS>BOND
     1    1    6 ar
     2    1    2 ar
     3    1   21 1
     4    2    3 ar
     5    3    4 ar
     6    3   20 1
     7    4    9 1
     8    4    5 ar
     9    5    6 ar
    10    5    7 1
    11    7    8 1
    12    7   10 1
    13    8    9 2
    14    8   22 1
    15   10   11 1
    16   10   16 1
    17   10   12 1
    18   12   13 2
    19   12   23 1
    20   13   14 1
    21   13   24 1
    22   14   15 1
    23   14   16 1
    24   14   19 1
    25   16   17 1
    26   16   18 1
    27   18   25 1
    28   19   26 1
    29   20   27 1
    30   20   28 1
@<TRIPOS>MOLECULE
CHEMBL608056
   32    34     0     0     0
SMALL
USER_CHARGES

@<TRIPOS>ATOM
      1 C1         -0.0158    1.3119    0.0093 C.ar      1 <0>         0.3642
      2 N1          1.0888    2.0360    0.0026 N.ar      1 <0>        -0.5921
      3 C2          2.2875    1.4625   -0.0119 C.ar      1 <0>         0.5086
      4 C3          2.3582    0.0588   -0.0202 C.ar      1 <0>        -0.1035
      5 C4          1.1547   -0.6659   -0.0126 C.ar      1 <0>         0.3053
      6 N2          0.0021   -0.0041    0.0020 N.ar      1 <0>        -0.5632
      7 N3          1.5110   -1.9908   -0.0227 N.pl3     1 <0>        -0.4624
      8 C5          2.8729   -2.0476   -0.0358 C.2       1 <0>         0.2866
      9 N4          3.3680   -0.8441   -0.0343 N.2       1 <0>        -0.4675
     10 C6          0.5956   -3.1347   -0.0195 C.3       1 <0>         0.3212
     11 C7          0.2309   -3.5275    1.4343 C.3       1 <0>         0.0750
     12 H1         -0.6203   -2.9502    1.7954 H         1 <0>         0.0983
     13 C8         -0.1450   -5.0231    1.2500 C.3       1 <0>         0.0526
     14 H2         -1.1819   -5.1260    0.9301 H         1 <0>         0.0932
     15 C9          0.8217   -5.4685    0.1317 C.3       1 <0>         0.0932
     16 H3          1.6864   -5.9686    0.5679 H         1 <0>         0.1196
     17 O1          1.2430   -4.2928   -0.5698 O.3       1 <0>        -0.3584
     18 C10         0.1133   -6.4040   -0.8138 C.2       1 <0>        -0.1357
     19 C11         0.0834   -6.1398   -2.0974 C.2       1 <0>        -0.1345
     20 I1         -0.9013   -7.4404   -3.4119 I         1 <0>        -0.0610
     21 O2          0.0892   -5.7582    2.4528 O.3       1 <0>        -0.5425
     22 O3          1.3547   -3.3815    2.3046 O.3       1 <0>        -0.5343
     23 N5          3.4393    2.2295   -0.0193 N.pl3     1 <0>        -0.8170
     24 H4         -0.9693    1.8187    0.0257 H         1 <0>         0.2053
     25 H5          3.4551   -2.9572   -0.0459 H         1 <0>         0.2197
     26 H6         -0.3049   -2.8993   -0.5867 H         1 <0>         0.1288
     27 H7         -0.3697   -7.2921   -0.4339 H         1 <0>         0.1353
     28 H8          0.5665   -5.2517   -2.4774 H         1 <0>         0.1486
     29 H9         -0.1303   -6.6978    2.3886 H         1 <0>         0.3917
     30 H10         1.1727   -3.6163    3.2249 H         1 <0>         0.3947
     31 H11         3.3774    3.1975   -0.0138 H         1 <0>         0.4109
     32 H12         4.3085    1.7992   -0.0299 H         1 <0>         0.4194
@<TRIPOS>BOND
     1    1    6 ar
     2    1    2 ar
     3    1   24 1
     4    2    3 ar
     5    3    4 ar
     6    3   23 1
     7    4    9 1
     8    4    5 ar
     9    5    6 ar
    10    5    7 1
    11    7    8 1
    12    7   10 1
    13    8    9 2
    14    8   25 1
    15   10   17 1
    16   10   11 1
    17   10   26 1
    18   11   12 1
    19   11   13 1
    20   11   22 1
    21   13   14 1
    22   13   15 1
    23   13   21 1
    24   15   16 1
    25   15   17 1
    26   15   18 1
    27   18   19 2
    28   18   27 1
    29   19   20 1
    30   19   28 1
    31   21   29 1
    32   22   30 1
    33   23   31 1
    34   23   32 1
@<TRIPOS>MOLECULE
CHEMBL608056__1
   32    34     0     0     0
SMALL
USER_CHARGES

@<TRIPOS>ATOM
      1 C1         -0.0158    1.3119    0.0093 C.ar      1 <0>         0.3669
      2 N1          1.0888    2.0360    0.0026 N.ar      1 <0>        -0.5910
      3 C2          2.2875    1.4625   -0.0119 C.ar      1 <0>         0.5097
      4 C3          2.3582    0.0588   -0.0202 C.ar      1 <0>        -0.1099
      5 C4          1.1547   -0.6659   -0.0126 C.ar      1 <0>         0.3148
      6 N2          0.0021   -0.0041    0.0020 N.ar      1 <0>        -0.5502
      7 N3          1.5110   -1.9908   -0.0227 N.pl3     1 <0>        -0.4721
      8 C5          2.8729   -2.0476   -0.0358 C.2       1 <0>         0.2612
      9 N4          3.3680   -0.8441   -0.0343 N.2       1 <0>        -0.4581
     10 C6          0.5956   -3.1347   -0.0195 C.3       1 <0>         0.3181
     11 C7          0.2093   -3.5183   -1.4652 C.3       1 <0>         0.0789
     12 H1          0.9741   -3.1842   -2.1663 H         1 <0>         0.0856
     13 C8          0.1372   -5.0615   -1.4375 C.3       1 <0>         0.0513
     14 H2          0.8663   -5.4903   -2.1250 H         1 <0>         0.0886
     15 C9          0.4884   -5.4276    0.0216 C.3       1 <0>         0.0841
     16 H3         -0.4201   -5.5508    0.6111 H         1 <0>         0.1116
     17 O1          1.2558   -4.3054    0.5091 O.3       1 <0>        -0.3554
     18 C10         1.3139   -6.6878    0.0621 C.2       1 <0>        -0.1178
     19 C11         2.4755   -6.6911    0.6694 C.2       1 <0>        -0.1326
     20 I1          3.6230   -8.4430    0.7257 I         1 <0>        -0.0574
     21 O2         -1.1805   -5.5071   -1.7652 O.3       1 <0>        -0.5385
     22 O3         -1.0609   -2.9610   -1.8087 O.3       1 <0>        -0.5259
     23 N5          3.4393    2.2295   -0.0193 N.pl3     1 <0>        -0.8167
     24 H4         -0.9693    1.8187    0.0257 H         1 <0>         0.2067
     25 H5          3.4551   -2.9572   -0.0459 H         1 <0>         0.2223
     26 H6         -0.2954   -2.9051    0.5649 H         1 <0>         0.1263
     27 H7          0.9483   -7.5881   -0.4093 H         1 <0>         0.1396
     28 H8          2.8411   -5.7908    1.1408 H         1 <0>         0.1490
     29 H9         -1.2824   -6.4687   -1.7627 H         1 <0>         0.3883
     30 H10        -1.3526   -3.1708   -2.7065 H         1 <0>         0.3918
     31 H11         3.3774    3.1975   -0.0138 H         1 <0>         0.4115
     32 H12         4.3085    1.7992   -0.0299 H         1 <0>         0.4192
@<TRIPOS>BOND
     1    1    6 ar
     2    1    2 ar
     3    1   24 1
     4    2    3 ar
     5    3    4 ar
     6    3   23 1
     7    4    9 1
     8    4    5 ar
     9    5    6 ar
    10    5    7 1
    11    7    8 1
    12    7   10 1
    13    8    9 2
    14    8   25 1
    15   10   17 1
    16   10   11 1
    17   10   26 1
    18   11   12 1
    19   11   13 1
    20   11   22 1
    21   13   14 1
    22   13   15 1
    23   13   21 1
    24   15   16 1
    25   15   17 1
    26   15   18 1
    27   18   19 2
    28   18   27 1
    29   19   20 1
    30   19   28 1
    31   21   29 1
    32   22   30 1
    33   23   31 1
    34   23   32 1
@<TRIPOS>MOLECULE
CHEMBL64718
   32    34     0     0     0
SMALL
USER_CHARGES

@<TRIPOS>ATOM
      1 C1         -0.0158    1.3119    0.0093 C.ar      1 <0>         0.3690
      2 N1          1.0888    2.0360    0.0026 N.ar      1 <0>        -0.5918
      3 C2          2.2875    1.4625   -0.0119 C.ar      1 <0>         0.5112
      4 C3          2.3582    0.0588   -0.0202 C.ar      1 <0>        -0.1121
      5 C4          1.1547   -0.6659   -0.0126 C.ar      1 <0>         0.3125
      6 N2          0.0021   -0.0041    0.0020 N.ar      1 <0>        -0.5578
      7 N3          1.5110   -1.9908   -0.0227 N.pl3     1 <0>        -0.4690
      8 C5          2.8729   -2.0476   -0.0358 C.2       1 <0>         0.2474
      9 N4          3.3680   -0.8441   -0.0343 N.2       1 <0>        -0.4521
     10 C6          0.5956   -3.1347   -0.0195 C.3       1 <0>         0.1635
     11 H1         -0.4389   -2.7921    0.0048 H         1 <0>         0.1462
     12 C7          0.8397   -4.0232   -1.2612 C.3       1 <0>         0.1144
     13 H2          1.8607   -3.9130   -1.6265 H         1 <0>         0.0981
     14 C8          0.6086   -5.4363   -0.6777 C.3       1 <0>         0.1215
     15 H3          1.2985   -6.1503   -1.1276 H         1 <0>         0.0864
     16 C9          0.8893   -5.2928    0.8001 C.2       1 <0>        -0.2108
     17 C10         0.8803   -4.0333    1.1615 C.2       1 <0>         0.0833
     18 F1          1.0981   -3.5951    2.4208 F         1 <0>        -0.0993
     19 C11         1.1439   -6.4462    1.7360 C.3       1 <0>         0.1279
     20 O1          1.3717   -5.9475    3.0556 O.3       1 <0>        -0.5628
     21 O2         -0.7428   -5.8486   -0.8921 O.3       1 <0>        -0.5346
     22 O3         -0.1052   -3.7329   -2.2932 O.3       1 <0>        -0.5301
     23 N5          3.4393    2.2295   -0.0193 N.pl3     1 <0>        -0.8165
     24 H4         -0.9693    1.8187    0.0257 H         1 <0>         0.2069
     25 H5          3.4551   -2.9572   -0.0459 H         1 <0>         0.2194
     26 H6          0.2773   -7.1073    1.7420 H         1 <0>         0.0653
     27 H7          2.0208   -6.9997    1.4003 H         1 <0>         0.0683
     28 H8          1.5429   -6.6363    3.7123 H         1 <0>         0.3885
     29 H9         -0.9451   -6.7286   -0.5462 H         1 <0>         0.3850
     30 H10         0.0087   -4.2659   -3.0920 H         1 <0>         0.3918
     31 H11         3.3774    3.1975   -0.0138 H         1 <0>         0.4114
     32 H12         4.3085    1.7992   -0.0299 H         1 <0>         0.4190
@<TRIPOS>BOND
     1    1    6 ar
     2    1    2 ar
     3    1   24 1
     4    2    3 ar
     5    3    4 ar
     6    3   23 1
     7    4    9 1
     8    4    5 ar
     9    5    6 ar
    10    5    7 1
    11    7    8 1
    12    7   10 1
    13    8    9 2
    14    8   25 1
    15   10   11 1
    16   10   17 1
    17   10   12 1
    18   12   13 1
    19   12   14 1
    20   12   22 1
    21   14   15 1
    22   14   16 1
    23   14   21 1
    24   16   17 2
    25   16   19 1
    26   17   18 1
    27   19   20 1
    28   19   26 1
    29   19   27 1
    30   20   28 1
    31   21   29 1
    32   22   30 1
    33   23   31 1
    34   23   32 1
@<TRIPOS>MOLECULE
CHEMBL605446
   30    32     0     0     0
SMALL
USER_CHARGES

@<TRIPOS>ATOM
      1 C1         -0.0158    1.3119    0.0093 C.ar      1 <0>         0.3636
      2 N1          1.0888    2.0360    0.0026 N.ar      1 <0>        -0.5931
      3 C2          2.2875    1.4625   -0.0119 C.ar      1 <0>         0.5084
      4 C3          2.3582    0.0588   -0.0202 C.ar      1 <0>        -0.1052
      5 C4          1.1547   -0.6659   -0.0126 C.ar      1 <0>         0.3105
      6 N2          0.0021   -0.0041    0.0020 N.ar      1 <0>        -0.5628
      7 N3          1.5110   -1.9908   -0.0227 N.pl3     1 <0>        -0.4645
      8 C5          2.8729   -2.0476   -0.0358 C.2       1 <0>         0.2793
      9 N4          3.3680   -0.8441   -0.0343 N.2       1 <0>        -0.4663
     10 C6          0.5956   -3.1347   -0.0195 C.3       1 <0>         0.3148
     11 C7          0.1918   -3.4782    1.4304 C.3       1 <0>         0.0775
     12 H1         -0.7989   -3.0862    1.6604 H         1 <0>         0.1019
     13 C8          0.1808   -5.0311    1.4103 C.3       1 <0>         0.0568
     14 H2         -0.7670   -5.4124    1.0302 H         1 <0>         0.0963
     15 C9          1.3366   -5.3206    0.4198 C.3       1 <0>        -0.0224
     16 H3          2.2964   -5.2744    0.9344 H         1 <0>         0.1222
     17 O1          1.2511   -4.2831   -0.5700 O.3       1 <0>        -0.3380
     18 C10         1.1514   -6.6727   -0.2194 C.2       1 <0>         0.3371
     19 O2          1.0396   -6.7636   -1.4183 O.2       1 <0>        -0.4213
     20 O3          0.4650   -5.5650    2.7050 O.3       1 <0>        -0.5400
     21 O4          1.1597   -2.9844    2.3585 O.3       1 <0>        -0.5343
     22 N5          3.4393    2.2295   -0.0193 N.pl3     1 <0>        -0.8178
     23 H4         -0.9693    1.8187    0.0257 H         1 <0>         0.2046
     24 H5          3.4551   -2.9572   -0.0459 H         1 <0>         0.2149
     25 H6         -0.2923   -2.8991   -0.6062 H         1 <0>         0.1387
     26 H7          1.1187   -7.5605    0.3948 H         1 <0>         0.1220
     27 H8          0.4686   -6.5314    2.7398 H         1 <0>         0.3927
     28 H9          0.9510   -3.1752    3.2832 H         1 <0>         0.3949
     29 H10         3.3774    3.1975   -0.0138 H         1 <0>         0.4105
     30 H11         4.3085    1.7992   -0.0299 H         1 <0>         0.4190
@<TRIPOS>BOND
     1    1    6 ar
     2    1    2 ar
     3    1   23 1
     4    2    3 ar
     5    3    4 ar
     6    3   22 1
     7    4    9 1
     8    4    5 ar
     9    5    6 ar
    10    5    7 1
    11    7    8 1
    12    7   10 1
    13    8    9 2
    14    8   24 1
    15   10   17 1
    16   10   11 1
    17   10   25 1
    18   11   12 1
    19   11   13 1
    20   11   21 1
    21   13   14 1
    22   13   15 1
    23   13   20 1
    24   15   16 1
    25   15   17 1
    26   15   18 1
    27   18   19 2
    28   18   26 1
    29   20   27 1
    30   21   28 1
    31   22   29 1
    32   22   30 1
@<TRIPOS>MOLECULE
CHEMBL605446__1
   30    32     0     0     0
SMALL
USER_CHARGES

@<TRIPOS>ATOM
      1 C1         -0.0158    1.3119    0.0093 C.ar      1 <0>         0.3661
      2 N1          1.0888    2.0360    0.0026 N.ar      1 <0>        -0.5910
      3 C2          2.2875    1.4625   -0.0119 C.ar      1 <0>         0.5095
      4 C3          2.3582    0.0588   -0.0202 C.ar      1 <0>        -0.1096
      5 C4          1.1547   -0.6659   -0.0126 C.ar      1 <0>         0.3136
      6 N2          0.0021   -0.0041    0.0020 N.ar      1 <0>        -0.5503
      7 N3          1.5110   -1.9908   -0.0227 N.pl3     1 <0>        -0.4726
      8 C5          2.8729   -2.0476   -0.0358 C.2       1 <0>         0.2641
      9 N4          3.3680   -0.8441   -0.0343 N.2       1 <0>        -0.4592
     10 C6          0.5956   -3.1347   -0.0195 C.3       1 <0>         0.3137
     11 C7          0.2093   -3.5183   -1.4652 C.3       1 <0>         0.0795
     12 H1          0.9741   -3.1842   -2.1663 H         1 <0>         0.0873
     13 C8          0.1372   -5.0615   -1.4375 C.3       1 <0>         0.0564
     14 H2          0.8663   -5.4903   -2.1250 H         1 <0>         0.0894
     15 C9          0.4884   -5.4276    0.0216 C.3       1 <0>        -0.0236
     16 H3         -0.4201   -5.5508    0.6111 H         1 <0>         0.1245
     17 O1          1.2558   -4.3054    0.5091 O.3       1 <0>        -0.3381
     18 C10         1.3139   -6.6878    0.0621 C.2       1 <0>         0.3433
     19 O2          2.4220   -6.6686    0.5416 O.2       1 <0>        -0.4211
     20 O3         -1.1805   -5.5071   -1.7652 O.3       1 <0>        -0.5362
     21 O4         -1.0609   -2.9610   -1.8087 O.3       1 <0>        -0.5246
     22 N5          3.4393    2.2295   -0.0193 N.pl3     1 <0>        -0.8168
     23 H4         -0.9693    1.8187    0.0257 H         1 <0>         0.2067
     24 H5          3.4551   -2.9572   -0.0459 H         1 <0>         0.2244
     25 H6         -0.2954   -2.9051    0.5649 H         1 <0>         0.1264
     26 H7          0.9144   -7.6081   -0.3378 H         1 <0>         0.1261
     27 H8         -1.2824   -6.4687   -1.7627 H         1 <0>         0.3893
     28 H9         -1.3526   -3.1708   -2.7065 H         1 <0>         0.3919
     29 H10         3.3774    3.1975   -0.0138 H         1 <0>         0.4114
     30 H11         4.3085    1.7992   -0.0299 H         1 <0>         0.4193
@<TRIPOS>BOND
     1    1    6 ar
     2    1    2 ar
     3    1   23 1
     4    2    3 ar
     5    3    4 ar
     6    3   22 1
     7    4    9 1
     8    4    5 ar
     9    5    6 ar
    10    5    7 1
    11    7    8 1
    12    7   10 1
    13    8    9 2
    14    8   24 1
    15   10   17 1
    16   10   11 1
    17   10   25 1
    18   11   12 1
    19   11   13 1
    20   11   21 1
    21   13   14 1
    22   13   15 1
    23   13   20 1
    24   15   16 1
    25   15   17 1
    26   15   18 1
    27   18   19 2
    28   18   26 1
    29   20   27 1
    30   21   28 1
    31   22   29 1
    32   22   30 1
@<TRIPOS>MOLECULE
CHEMBL299135
   31    33     0     0     0
SMALL
USER_CHARGES

@<TRIPOS>ATOM
      1 C1         -0.0184    1.5028    0.0103 C.3       1 <0>        -0.1102
      2 C2          0.0021   -0.0041    0.0020 C.2       1 <0>        -0.1333
      3 C3          0.0075   -0.7365   -1.0784 C.2       1 <0>        -0.1656
      4 C4          0.0294   -2.2084   -0.7378 C.3       1 <0>         0.1665
      5 H1         -0.6851   -2.7519   -1.3559 H         1 <0>         0.1316
      6 C5         -0.3863   -2.2738    0.7502 C.3       1 <0>         0.1090
      7 H2          0.1698   -3.0485    1.2782 H         1 <0>         0.0820
      8 C6          0.0256   -0.8654    1.2433 C.3       1 <0>         0.0943
      9 H3          1.0280   -0.8880    1.6708 H         1 <0>         0.0791
     10 O1         -0.9155   -0.3808    2.2033 O.3       1 <0>        -0.5488
     11 O2         -1.7946   -2.4778    0.8809 O.3       1 <0>        -0.5362
     12 N1          1.3771   -2.7539   -0.9180 N.pl3     1 <0>        -0.4606
     13 C7          2.5091   -2.3323   -0.2861 C.2       1 <0>         0.2469
     14 N2          3.5284   -3.0376   -0.6824 N.2       1 <0>        -0.4559
     15 C8          3.1167   -3.9541   -1.5912 C.ar      1 <0>        -0.1130
     16 C9          1.7305   -3.7866   -1.7492 C.ar      1 <0>         0.3082
     17 N3          1.0763   -4.5780   -2.5929 N.ar      1 <0>        -0.5592
     18 C10         1.7141   -5.5089   -3.2709 C.ar      1 <0>         0.3681
     19 N4          3.0144   -5.7060   -3.1535 N.ar      1 <0>        -0.5923
     20 C11         3.7534   -4.9577   -2.3407 C.ar      1 <0>         0.5108
     21 N5          5.1155   -5.1725   -2.2234 N.pl3     1 <0>        -0.8167
     22 H4          1.0042    1.8801    0.0026 H         1 <0>         0.0773
     23 H5         -0.5455    1.8639   -0.8728 H         1 <0>         0.0746
     24 H6         -0.5286    1.8543    0.9071 H         1 <0>         0.0700
     25 H7         -0.0028   -0.3421   -2.0838 H         1 <0>         0.1409
     26 H8         -0.7372    0.5190    2.5094 H         1 <0>         0.3854
     27 H9         -2.1018   -2.5255    1.7965 H         1 <0>         0.3948
     28 H10         2.5534   -1.5310    0.4366 H         1 <0>         0.2151
     29 H11         1.1526   -6.1352   -3.9484 H         1 <0>         0.2066
     30 H12         5.6422   -4.6270   -1.6184 H         1 <0>         0.4191
     31 H13         5.5435   -5.8684   -2.7462 H         1 <0>         0.4114
@<TRIPOS>BOND
     1    1    2 1
     2    1   22 1
     3    1   23 1
     4    1   24 1
     5    2    8 1
     6    2    3 2
     7    3    4 1
     8    3   25 1
     9    4    5 1
    10    4    6 1
    11    4   12 1
    12    6    7 1
    13    6    8 1
    14    6   11 1
    15    8    9 1
    16    8   10 1
    17   10   26 1
    18   11   27 1
    19   12   16 1
    20   12   13 1
    21   13   14 2
    22   13   28 1
    23   14   15 1
    24   15   20 ar
    25   15   16 ar
    26   16   17 ar
    27   17   18 ar
    28   18   19 ar
    29   18   29 1
    30   19   20 ar
    31   20   21 1
    32   21   30 1
    33   21   31 1
@<TRIPOS>MOLECULE
CHEMBL415930
   29    30     0     0     0
SMALL
USER_CHARGES

@<TRIPOS>ATOM
      1 C1          0.4907    1.4357    0.0591 C.3       1 <0>        -0.1195
      2 C2          0.1965   -0.0419    0.0241 C.2       1 <0>        -0.0936
      3 C3         -0.0134   -0.6946    1.1403 C.2       1 <0>        -0.1785
      4 C4         -0.1492   -2.1953    1.1216 C.3       1 <0>         0.1341
      5 N1          0.9057   -2.7915    1.9450 N.pl3     1 <0>        -0.4666
      6 C5          2.1112   -3.2501    1.5036 C.2       1 <0>         0.2502
      7 N2          2.8032   -3.7146    2.5031 N.2       1 <0>        -0.4620
      8 C6          2.0879   -3.5841    3.6461 C.ar      1 <0>        -0.1133
      9 C7          0.8640   -2.9852    3.3026 C.ar      1 <0>         0.3035
     10 N3         -0.0262   -2.7405    4.2585 N.ar      1 <0>        -0.5591
     11 C8          0.2324   -3.0508    5.5114 C.ar      1 <0>         0.3649
     12 N4          1.3688   -3.6114    5.8828 N.ar      1 <0>        -0.5934
     13 C9          2.3153   -3.9015    4.9959 C.ar      1 <0>         0.5091
     14 N5          3.5036   -4.4881    5.3948 N.pl3     1 <0>        -0.8176
     15 C10         0.1439   -0.7687   -1.2950 C.3       1 <0>         0.0984
     16 O1         -0.7271   -0.0719   -2.1883 O.3       1 <0>        -0.5641
     17 H1          1.5668    1.5901    0.1386 H         1 <0>         0.0714
     18 H2          0.1234    1.9010   -0.8556 H         1 <0>         0.0749
     19 H3         -0.0053    1.8846    0.9196 H         1 <0>         0.0661
     20 H4         -0.0891   -0.1572    2.0741 H         1 <0>         0.1241
     21 H5         -1.1239   -2.4770    1.5200 H         1 <0>         0.1046
     22 H6         -0.0577   -2.5557    0.0969 H         1 <0>         0.1076
     23 H7          2.4428   -3.2311    0.4760 H         1 <0>         0.2204
     24 H8         -0.5127   -2.8385    6.2639 H         1 <0>         0.2050
     25 H9          4.1913   -4.6848    4.7396 H         1 <0>         0.4189
     26 H10         3.6487   -4.7025    6.3296 H         1 <0>         0.4108
     27 H11         1.1444   -0.8142   -1.7250 H         1 <0>         0.0596
     28 H12        -0.2305   -1.7802   -1.1379 H         1 <0>         0.0594
     29 H13        -0.8092   -0.4842   -3.0591 H         1 <0>         0.3850
@<TRIPOS>BOND
     1    1    2 1
     2    1   17 1
     3    1   18 1
     4    1   19 1
     5    2    3 2
     6    2   15 1
     7    3    4 1
     8    3   20 1
     9    4    5 1
    10    4   21 1
    11    4   22 1
    12    5    9 1
    13    5    6 1
    14    6    7 2
    15    6   23 1
    16    7    8 1
    17    8   13 ar
    18    8    9 ar
    19    9   10 ar
    20   10   11 ar
    21   11   12 ar
    22   11   24 1
    23   12   13 ar
    24   13   14 1
    25   14   25 1
    26   14   26 1
    27   15   16 1
    28   15   27 1
    29   15   28 1
    30   16   29 1
@<TRIPOS>MOLECULE
CHEMBL49204
   31    33     0     0     0
SMALL
USER_CHARGES

@<TRIPOS>ATOM
      1 C1         -0.0158    1.3119    0.0093 C.ar      1 <0>         0.3672
      2 N1          1.0888    2.0360    0.0026 N.ar      1 <0>        -0.5932
      3 C2          2.2875    1.4625   -0.0119 C.ar      1 <0>         0.5100
      4 C3          2.3582    0.0588   -0.0202 C.ar      1 <0>        -0.1140
      5 C4          1.1547   -0.6659   -0.0126 C.ar      1 <0>         0.3120
      6 N2          0.0021   -0.0041    0.0020 N.ar      1 <0>        -0.5571
      7 N3          1.5110   -1.9908   -0.0227 N.pl3     1 <0>        -0.4629
      8 C5          2.8729   -2.0476   -0.0358 C.2       1 <0>         0.2424
      9 N4          3.3680   -0.8441   -0.0343 N.2       1 <0>        -0.4562
     10 C6          0.5956   -3.1347   -0.0195 C.3       1 <0>         0.1489
     11 H1         -0.4412   -2.7992    0.0047 H         1 <0>         0.1325
     12 C7          0.8973   -4.0783    1.1711 C.3       1 <0>        -0.0812
     13 C8          0.3604   -5.4282    0.7296 C.2       1 <0>        -0.2192
     14 C9         -0.0115   -6.4124    1.5152 C.2       1 <0>         0.0610
     15 F1         -0.4727   -7.5649    0.9820 F         1 <0>        -0.1455
     16 C10         0.3327   -5.4291   -0.7846 C.3       1 <0>         0.1087
     17 H2          0.9790   -6.2184   -1.1685 H         1 <0>         0.0765
     18 C11         0.8508   -4.0483   -1.2451 C.3       1 <0>         0.1058
     19 H3          1.9160   -4.0966   -1.4716 H         1 <0>         0.0839
     20 O1          0.1157   -3.5840   -2.3792 O.3       1 <0>        -0.5351
     21 O2         -1.0047   -5.6244   -1.2486 O.3       1 <0>        -0.5399
     22 N5          3.4393    2.2295   -0.0193 N.pl3     1 <0>        -0.8175
     23 H4         -0.9693    1.8187    0.0257 H         1 <0>         0.2056
     24 H5          3.4551   -2.9572   -0.0459 H         1 <0>         0.2195
     25 H6          1.9712   -4.1354    1.3490 H         1 <0>         0.0971
     26 H7          0.3796   -3.7374    2.0677 H         1 <0>         0.0955
     27 H8          0.0512   -6.3006    2.5875 H         1 <0>         0.1578
     28 H9          0.2393   -4.1201   -3.1744 H         1 <0>         0.3857
     29 H10        -1.3955   -6.4667   -0.9786 H         1 <0>         0.3821
     30 H11         3.3774    3.1975   -0.0138 H         1 <0>         0.4110
     31 H12         4.3085    1.7992   -0.0299 H         1 <0>         0.4188
@<TRIPOS>BOND
     1    1    6 ar
     2    1    2 ar
     3    1   23 1
     4    2    3 ar
     5    3    4 ar
     6    3   22 1
     7    4    9 1
     8    4    5 ar
     9    5    6 ar
    10    5    7 1
    11    7    8 1
    12    7   10 1
    13    8    9 2
    14    8   24 1
    15   10   11 1
    16   10   18 1
    17   10   12 1
    18   12   13 1
    19   12   25 1
    20   12   26 1
    21   13   14 2
    22   13   16 1
    23   14   15 1
    24   14   27 1
    25   16   17 1
    26   16   18 1
    27   16   21 1
    28   18   19 1
    29   18   20 1
    30   20   28 1
    31   21   29 1
    32   22   30 1
    33   22   31 1
@<TRIPOS>MOLECULE
CHEMBL610690
   32    34     0     0     0
SMALL
USER_CHARGES

@<TRIPOS>ATOM
      1 C1         -0.0158    1.3119    0.0093 C.ar      1 <0>         0.3642
      2 N1          1.0888    2.0360    0.0026 N.ar      1 <0>        -0.5921
      3 C2          2.2875    1.4625   -0.0119 C.ar      1 <0>         0.5087
      4 C3          2.3582    0.0588   -0.0202 C.ar      1 <0>        -0.1038
      5 C4          1.1547   -0.6659   -0.0126 C.ar      1 <0>         0.3053
      6 N2          0.0021   -0.0041    0.0020 N.ar      1 <0>        -0.5631
      7 N3          1.5110   -1.9908   -0.0227 N.pl3     1 <0>        -0.4625
      8 C5          2.8729   -2.0476   -0.0358 C.2       1 <0>         0.2866
      9 N4          3.3680   -0.8441   -0.0343 N.2       1 <0>        -0.4676
     10 C6          0.5956   -3.1347   -0.0195 C.3       1 <0>         0.3212
     11 C7          0.2309   -3.5275    1.4343 C.3       1 <0>         0.0746
     12 H1         -0.6203   -2.9502    1.7954 H         1 <0>         0.0982
     13 C8         -0.1450   -5.0231    1.2500 C.3       1 <0>         0.0522
     14 H2         -1.1819   -5.1260    0.9301 H         1 <0>         0.0935
     15 C9          0.8217   -5.4685    0.1317 C.3       1 <0>         0.0987
     16 H3          1.6864   -5.9686    0.5679 H         1 <0>         0.1177
     17 O1          1.2430   -4.2928   -0.5698 O.3       1 <0>        -0.3614
     18 C10         0.1133   -6.4040   -0.8138 C.2       1 <0>        -0.1850
     19 C11         0.0834   -6.1397   -2.0982 C.2       1 <0>        -0.0724
     20 Cl1        -0.7326   -7.2174   -3.1874 Cl        1 <0>        -0.0845
     21 O2          0.0892   -5.7582    2.4528 O.3       1 <0>        -0.5433
     22 O3          1.3547   -3.3815    2.3046 O.3       1 <0>        -0.5347
     23 N5          3.4393    2.2295   -0.0193 N.pl3     1 <0>        -0.8170
     24 H4         -0.9693    1.8187    0.0257 H         1 <0>         0.2054
     25 H5          3.4551   -2.9572   -0.0459 H         1 <0>         0.2198
     26 H6         -0.3049   -2.8993   -0.5867 H         1 <0>         0.1293
     27 H7         -0.3697   -7.2921   -0.4339 H         1 <0>         0.1383
     28 H8          0.5665   -5.2516   -2.4781 H         1 <0>         0.1569
     29 H9         -0.1303   -6.6978    2.3886 H         1 <0>         0.3919
     30 H10         1.1727   -3.6163    3.2249 H         1 <0>         0.3946
     31 H11         3.3774    3.1975   -0.0138 H         1 <0>         0.4108
     32 H12         4.3085    1.7992   -0.0299 H         1 <0>         0.4194
@<TRIPOS>BOND
     1    1    6 ar
     2    1    2 ar
     3    1   24 1
     4    2    3 ar
     5    3    4 ar
     6    3   23 1
     7    4    9 1
     8    4    5 ar
     9    5    6 ar
    10    5    7 1
    11    7    8 1
    12    7   10 1
    13    8    9 2
    14    8   25 1
    15   10   17 1
    16   10   11 1
    17   10   26 1
    18   11   12 1
    19   11   13 1
    20   11   22 1
    21   13   14 1
    22   13   15 1
    23   13   21 1
    24   15   16 1
    25   15   17 1
    26   15   18 1
    27   18   19 2
    28   18   27 1
    29   19   20 1
    30   19   28 1
    31   21   29 1
    32   22   30 1
    33   23   31 1
    34   23   32 1
@<TRIPOS>MOLECULE
CHEMBL610690__1
   32    34     0     0     0
SMALL
USER_CHARGES

@<TRIPOS>ATOM
      1 C1         -0.0158    1.3119    0.0093 C.ar      1 <0>         0.3670
      2 N1          1.0888    2.0360    0.0026 N.ar      1 <0>        -0.5909
      3 C2          2.2875    1.4625   -0.0119 C.ar      1 <0>         0.5097
      4 C3          2.3582    0.0588   -0.0202 C.ar      1 <0>        -0.1102
      5 C4          1.1547   -0.6659   -0.0126 C.ar      1 <0>         0.3149
      6 N2          0.0021   -0.0041    0.0020 N.ar      1 <0>        -0.5504
      7 N3          1.5110   -1.9908   -0.0227 N.pl3     1 <0>        -0.4723
      8 C5          2.8729   -2.0476   -0.0358 C.2       1 <0>         0.2610
      9 N4          3.3680   -0.8441   -0.0343 N.2       1 <0>        -0.4581
     10 C6          0.5956   -3.1347   -0.0195 C.3       1 <0>         0.3185
     11 C7          0.2093   -3.5183   -1.4652 C.3       1 <0>         0.0785
     12 H1          0.9741   -3.1842   -2.1663 H         1 <0>         0.0856
     13 C8          0.1372   -5.0615   -1.4375 C.3       1 <0>         0.0508
     14 H2          0.8663   -5.4903   -2.1250 H         1 <0>         0.0889
     15 C9          0.4884   -5.4276    0.0216 C.3       1 <0>         0.0899
     16 H3         -0.4201   -5.5508    0.6111 H         1 <0>         0.1097
     17 O1          1.2558   -4.3054    0.5091 O.3       1 <0>        -0.3585
     18 C10         1.3139   -6.6878    0.0621 C.2       1 <0>        -0.1671
     19 C11         2.4762   -6.6911    0.6697 C.2       1 <0>        -0.0699
     20 Cl1         3.4271   -8.1428    0.7164 Cl        1 <0>        -0.0815
     21 O2         -1.1805   -5.5071   -1.7652 O.3       1 <0>        -0.5392
     22 O3         -1.0609   -2.9610   -1.8087 O.3       1 <0>        -0.5262
     23 N5          3.4393    2.2295   -0.0193 N.pl3     1 <0>        -0.8167
     24 H4         -0.9693    1.8187    0.0257 H         1 <0>         0.2067
     25 H5          3.4551   -2.9572   -0.0459 H         1 <0>         0.2227
     26 H6         -0.2954   -2.9051    0.5649 H         1 <0>         0.1264
     27 H7          0.9483   -7.5881   -0.4093 H         1 <0>         0.1426
     28 H8          2.8417   -5.7908    1.1411 H         1 <0>         0.1572
     29 H9         -1.2824   -6.4687   -1.7627 H         1 <0>         0.3885
     30 H10        -1.3526   -3.1708   -2.7065 H         1 <0>         0.3918
     31 H11         3.3774    3.1975   -0.0138 H         1 <0>         0.4115
     32 H12         4.3085    1.7992   -0.0299 H         1 <0>         0.4192
@<TRIPOS>BOND
     1    1    6 ar
     2    1    2 ar
     3    1   24 1
     4    2    3 ar
     5    3    4 ar
     6    3   23 1
     7    4    9 1
     8    4    5 ar
     9    5    6 ar
    10    5    7 1
    11    7    8 1
    12    7   10 1
    13    8    9 2
    14    8   25 1
    15   10   17 1
    16   10   11 1
    17   10   26 1
    18   11   12 1
    19   11   13 1
    20   11   22 1
    21   13   14 1
    22   13   15 1
    23   13   21 1
    24   15   16 1
    25   15   17 1
    26   15   18 1
    27   18   19 2
    28   18   27 1
    29   19   20 1
    30   19   28 1
    31   21   29 1
    32   22   30 1
    33   23   31 1
    34   23   32 1
@<TRIPOS>MOLECULE
CHEMBL610689
   32    34     0     0     0
SMALL
USER_CHARGES

@<TRIPOS>ATOM
      1 C1         -0.0158    1.3119    0.0093 C.ar      1 <0>         0.3642
      2 N1          1.0888    2.0360    0.0026 N.ar      1 <0>        -0.5920
      3 C2          2.2875    1.4625   -0.0119 C.ar      1 <0>         0.5086
      4 C3          2.3582    0.0588   -0.0202 C.ar      1 <0>        -0.1034
      5 C4          1.1547   -0.6659   -0.0126 C.ar      1 <0>         0.3052
      6 N2          0.0021   -0.0041    0.0020 N.ar      1 <0>        -0.5631
      7 N3          1.5110   -1.9908   -0.0227 N.pl3     1 <0>        -0.4624
      8 C5          2.8729   -2.0476   -0.0358 C.2       1 <0>         0.2866
      9 N4          3.3680   -0.8441   -0.0343 N.2       1 <0>        -0.4676
     10 C6          0.5956   -3.1347   -0.0195 C.3       1 <0>         0.3211
     11 C7          0.2309   -3.5275    1.4343 C.3       1 <0>         0.0749
     12 H1         -0.6203   -2.9502    1.7954 H         1 <0>         0.0984
     13 C8         -0.1450   -5.0231    1.2500 C.3       1 <0>         0.0525
     14 H2         -1.1819   -5.1260    0.9301 H         1 <0>         0.0936
     15 C9          0.8217   -5.4685    0.1317 C.3       1 <0>         0.0941
     16 H3          1.6864   -5.9686    0.5679 H         1 <0>         0.1194
     17 O1          1.2430   -4.2928   -0.5698 O.3       1 <0>        -0.3594
     18 C10         0.1133   -6.4040   -0.8138 C.2       1 <0>        -0.1477
     19 C11         0.0834   -6.1397   -2.0978 C.2       1 <0>        -0.1274
     20 Br1        -0.8054   -7.3136   -3.2843 Br        1 <0>        -0.0653
     21 O2          0.0892   -5.7582    2.4528 O.3       1 <0>        -0.5428
     22 O3          1.3547   -3.3815    2.3046 O.3       1 <0>        -0.5345
     23 N5          3.4393    2.2295   -0.0193 N.pl3     1 <0>        -0.8170
     24 H4         -0.9693    1.8187    0.0257 H         1 <0>         0.2054
     25 H5          3.4551   -2.9572   -0.0459 H         1 <0>         0.2197
     26 H6         -0.3049   -2.8993   -0.5867 H         1 <0>         0.1291
     27 H7         -0.3697   -7.2921   -0.4339 H         1 <0>         0.1386
     28 H8          0.5665   -5.2516   -2.4778 H         1 <0>         0.1544
     29 H9         -0.1303   -6.6978    2.3886 H         1 <0>         0.3919
     30 H10         1.1727   -3.6163    3.2249 H         1 <0>         0.3947
     31 H11         3.3774    3.1975   -0.0138 H         1 <0>         0.4109
     32 H12         4.3085    1.7992   -0.0299 H         1 <0>         0.4194
@<TRIPOS>BOND
     1    1    6 ar
     2    1    2 ar
     3    1   24 1
     4    2    3 ar
     5    3    4 ar
     6    3   23 1
     7    4    9 1
     8    4    5 ar
     9    5    6 ar
    10    5    7 1
    11    7    8 1
    12    7   10 1
    13    8    9 2
    14    8   25 1
    15   10   17 1
    16   10   11 1
    17   10   26 1
    18   11   12 1
    19   11   13 1
    20   11   22 1
    21   13   14 1
    22   13   15 1
    23   13   21 1
    24   15   16 1
    25   15   17 1
    26   15   18 1
    27   18   19 2
    28   18   27 1
    29   19   20 1
    30   19   28 1
    31   21   29 1
    32   22   30 1
    33   23   31 1
    34   23   32 1
@<TRIPOS>MOLECULE
CHEMBL610689__1
   32    34     0     0     0
SMALL
USER_CHARGES

@<TRIPOS>ATOM
      1 C1         -0.0158    1.3119    0.0093 C.ar      1 <0>         0.3670
      2 N1          1.0888    2.0360    0.0026 N.ar      1 <0>        -0.5910
      3 C2          2.2875    1.4625   -0.0119 C.ar      1 <0>         0.5097
      4 C3          2.3582    0.0588   -0.0202 C.ar      1 <0>        -0.1099
      5 C4          1.1547   -0.6659   -0.0126 C.ar      1 <0>         0.3148
      6 N2          0.0021   -0.0041    0.0020 N.ar      1 <0>        -0.5503
      7 N3          1.5110   -1.9908   -0.0227 N.pl3     1 <0>        -0.4723
      8 C5          2.8729   -2.0476   -0.0358 C.2       1 <0>         0.2612
      9 N4          3.3680   -0.8441   -0.0343 N.2       1 <0>        -0.4581
     10 C6          0.5956   -3.1347   -0.0195 C.3       1 <0>         0.3182
     11 C7          0.2093   -3.5183   -1.4652 C.3       1 <0>         0.0787
     12 H1          0.9741   -3.1842   -2.1663 H         1 <0>         0.0857
     13 C8          0.1372   -5.0615   -1.4375 C.3       1 <0>         0.0512
     14 H2          0.8663   -5.4903   -2.1250 H         1 <0>         0.0890
     15 C9          0.4884   -5.4276    0.0216 C.3       1 <0>         0.0851
     16 H3         -0.4201   -5.5508    0.6111 H         1 <0>         0.1114
     17 O1          1.2558   -4.3054    0.5091 O.3       1 <0>        -0.3565
     18 C10         1.3139   -6.6878    0.0621 C.2       1 <0>        -0.1299
     19 C11         2.4759   -6.6911    0.6696 C.2       1 <0>        -0.1251
     20 Br1         3.5117   -8.2724    0.7204 Br        1 <0>        -0.0621
     21 O2         -1.1805   -5.5071   -1.7652 O.3       1 <0>        -0.5387
     22 O3         -1.0609   -2.9610   -1.8087 O.3       1 <0>        -0.5259
     23 N5          3.4393    2.2295   -0.0193 N.pl3     1 <0>        -0.8167
     24 H4         -0.9693    1.8187    0.0257 H         1 <0>         0.2067
     25 H5          3.4551   -2.9572   -0.0459 H         1 <0>         0.2226
     26 H6         -0.2954   -2.9051    0.5649 H         1 <0>         0.1264
     27 H7          0.9483   -7.5881   -0.4093 H         1 <0>         0.1429
     28 H8          2.8414   -5.7908    1.1409 H         1 <0>         0.1547
     29 H9         -1.2824   -6.4687   -1.7627 H         1 <0>         0.3885
     30 H10        -1.3526   -3.1708   -2.7065 H         1 <0>         0.3919
     31 H11         3.3774    3.1975   -0.0138 H         1 <0>         0.4115
     32 H12         4.3085    1.7992   -0.0299 H         1 <0>         0.4192
@<TRIPOS>BOND
     1    1    6 ar
     2    1    2 ar
     3    1   24 1
     4    2    3 ar
     5    3    4 ar
     6    3   23 1
     7    4    9 1
     8    4    5 ar
     9    5    6 ar
    10    5    7 1
    11    7    8 1
    12    7   10 1
    13    8    9 2
    14    8   25 1
    15   10   17 1
    16   10   11 1
    17   10   26 1
    18   11   12 1
    19   11   13 1
    20   11   22 1
    21   13   14 1
    22   13   15 1
    23   13   21 1
    24   15   16 1
    25   15   17 1
    26   15   18 1
    27   18   19 2
    28   18   27 1
    29   19   20 1
    30   19   28 1
    31   21   29 1
    32   22   30 1
    33   23   31 1
    34   23   32 1
@<TRIPOS>MOLECULE
CHEMBL53931
   35    37     0     0     0
SMALL
USER_CHARGES

@<TRIPOS>ATOM
      1 C1         -0.0157    1.3058    0.0092 C.2       1 <0>        -0.1214
      2 C2          0.0021   -0.0041    0.0020 C.2       1 <0>        -0.1526
      3 C3         -1.2055   -0.9180    0.0020 C.3       1 <0>        -0.0479
      4 C4         -0.6711   -2.3653    0.0006 C.3       1 <0>         0.0794
      5 C5          0.7556   -2.2317    0.5911 C.3       1 <0>         0.0631
      6 C6          1.2372   -0.8871   -0.0145 C.3       1 <0>         0.1837
      7 N1          2.2948   -0.3032    0.8141 N.pl3     1 <0>        -0.4605
      8 C7          2.2109   -0.0142    2.1437 C.2       1 <0>         0.2498
      9 N2          3.3342    0.4941    2.5600 N.2       1 <0>        -0.4594
     10 C8          4.2080    0.5635    1.5272 C.ar      1 <0>        -0.1132
     11 C9          3.5535    0.0477    0.3957 C.ar      1 <0>         0.3085
     12 N3          4.2052   -0.0006   -0.7615 N.ar      1 <0>        -0.5576
     13 C10         5.4477    0.4251   -0.8500 C.ar      1 <0>         0.3648
     14 N4          6.1047    0.9145    0.1856 N.ar      1 <0>        -0.5935
     15 C11         5.5322    1.0104    1.3813 C.ar      1 <0>         0.5089
     16 N5          6.2292    1.5237    2.4610 N.pl3     1 <0>        -0.8180
     17 O1          1.5882   -3.3089    0.1570 O.3       1 <0>        -0.5452
     18 O2         -0.6170   -2.8792   -1.3317 O.3       1 <0>        -0.5449
     19 C12        -2.0485   -0.6706   -1.2507 C.3       1 <0>         0.0961
     20 O3         -2.6114    0.6416   -1.1945 O.3       1 <0>        -0.5765
     21 H1          0.9122    1.8585    0.0033 H         1 <0>         0.0984
     22 H2         -0.9582    1.8330    0.0166 H         1 <0>         0.1267
     23 H3         -1.8051   -0.7432    0.8954 H         1 <0>         0.1049
     24 H4         -1.2892   -3.0024    0.6331 H         1 <0>         0.0807
     25 H5          0.7215   -2.1809    1.6793 H         1 <0>         0.0836
     26 H6          1.5886   -1.0311   -1.0362 H         1 <0>         0.1310
     27 H7          1.3403   -0.1820    2.7605 H         1 <0>         0.2168
     28 H8          5.9486    0.3718   -1.8053 H         1 <0>         0.2047
     29 H9          5.8041    1.5781    3.3312 H         1 <0>         0.4186
     30 H10         7.1429    1.8290    2.3476 H         1 <0>         0.4105
     31 H11         1.2784   -4.1819    0.4345 H         1 <0>         0.3830
     32 H12        -0.2878   -3.7865   -1.3902 H         1 <0>         0.3844
     33 H13        -1.4184   -0.7581   -2.1357 H         1 <0>         0.0585
     34 H14        -2.8498   -1.4079   -1.3008 H         1 <0>         0.0514
     35 H15        -3.1596    0.8675   -1.9585 H         1 <0>         0.3833
@<TRIPOS>BOND
     1    1    2 2
     2    1   21 1
     3    1   22 1
     4    2    6 1
     5    2    3 1
     6    3    4 1
     7    3   19 1
     8    3   23 1
     9    4    5 1
    10    4   18 1
    11    4   24 1
    12    5    6 1
    13    5   17 1
    14    5   25 1
    15    6    7 1
    16    6   26 1
    17    7   11 1
    18    7    8 1
    19    8    9 2
    20    8   27 1
    21    9   10 1
    22   10   15 ar
    23   10   11 ar
    24   11   12 ar
    25   12   13 ar
    26   13   14 ar
    27   13   28 1
    28   14   15 ar
    29   15   16 1
    30   16   29 1
    31   16   30 1
    32   17   31 1
    33   18   32 1
    34   19   20 1
    35   19   33 1
    36   19   34 1
    37   20   35 1
@<TRIPOS>MOLECULE
CHEMBL53931__1
   35    37     0     0     0
SMALL
USER_CHARGES

@<TRIPOS>ATOM
      1 C1          2.0795    1.3780    0.7197 C.2       1 <0>        -0.1089
      2 C2          1.1176    0.5932    0.3015 C.2       1 <0>        -0.1615
      3 C3         -0.3183    0.9959    0.0375 C.3       1 <0>        -0.0540
      4 C4         -1.0606   -0.2739   -0.4280 C.3       1 <0>         0.0704
      5 C5         -0.2062   -1.4319    0.1475 C.3       1 <0>         0.0613
      6 C6          1.2372   -0.8871   -0.0145 C.3       1 <0>         0.1817
      7 N1          1.7095   -1.0806   -1.3877 N.pl3     1 <0>        -0.4448
      8 C7          1.2708   -0.4142   -2.4930 C.2       1 <0>         0.2691
      9 N2          1.9061   -0.8357   -3.5477 N.2       1 <0>        -0.4799
     10 C8          2.7903   -1.7967   -3.1874 C.ar      1 <0>        -0.1090
     11 C9          2.6787   -1.9616   -1.7963 C.ar      1 <0>         0.3038
     12 N3          3.4529   -2.8538   -1.1875 N.ar      1 <0>        -0.5583
     13 C10         4.3156   -3.5730   -1.8740 C.ar      1 <0>         0.3565
     14 N4          4.4586   -3.4512   -3.1811 N.ar      1 <0>        -0.5949
     15 C11         3.7217   -2.5913   -3.8769 C.ar      1 <0>         0.5030
     16 N5          3.8795   -2.4699   -5.2464 N.pl3     1 <0>        -0.8211
     17 O1         -0.3855   -2.6250   -0.6182 O.3       1 <0>        -0.5422
     18 O2         -1.0980   -0.3389   -1.8551 O.3       1 <0>        -0.5487
     19 C12        -0.3692    2.0626   -1.0582 C.3       1 <0>         0.0900
     20 O3          0.2420    3.2636   -0.5825 O.3       1 <0>        -0.5736
     21 H1          3.0729    0.9816    0.8700 H         1 <0>         0.1054
     22 H2          1.8803    2.4223    0.9098 H         1 <0>         0.1278
     23 H3         -0.7720    1.3786    0.9517 H         1 <0>         0.1073
     24 H4         -2.0693   -0.3007   -0.0159 H         1 <0>         0.0815
     25 H5         -0.4439   -1.6043    1.1973 H         1 <0>         0.0950
     26 H6          1.9090   -1.3742    0.6923 H         1 <0>         0.1157
     27 H7          0.5083    0.3506   -2.4934 H         1 <0>         0.2370
     28 H8          4.9297   -4.2893   -1.3485 H         1 <0>         0.2014
     29 H9          3.3438   -1.8307   -5.7416 H         1 <0>         0.4176
     30 H10         4.5259   -3.0241   -5.7112 H         1 <0>         0.4088
     31 H11        -1.2938   -2.9566   -0.6228 H         1 <0>         0.3811
     32 H12        -1.5535   -1.1184   -2.2015 H         1 <0>         0.3866
     33 H13         0.1668    1.7059   -1.9377 H         1 <0>         0.0556
     34 H14        -1.4076    2.2632   -1.3220 H         1 <0>         0.0559
     35 H15         0.2454    3.9849   -1.2266 H         1 <0>         0.3846
@<TRIPOS>BOND
     1    1    2 2
     2    1   21 1
     3    1   22 1
     4    2    6 1
     5    2    3 1
     6    3    4 1
     7    3   19 1
     8    3   23 1
     9    4    5 1
    10    4   18 1
    11    4   24 1
    12    5    6 1
    13    5   17 1
    14    5   25 1
    15    6    7 1
    16    6   26 1
    17    7   11 1
    18    7    8 1
    19    8    9 2
    20    8   27 1
    21    9   10 1
    22   10   15 ar
    23   10   11 ar
    24   11   12 ar
    25   12   13 ar
    26   13   14 ar
    27   13   28 1
    28   14   15 ar
    29   15   16 1
    30   16   29 1
    31   16   30 1
    32   17   31 1
    33   18   32 1
    34   19   20 1
    35   19   33 1
    36   19   34 1
    37   20   35 1
@<TRIPOS>MOLECULE
CHEMBL53931__2
   35    37     0     0     0
SMALL
USER_CHARGES

@<TRIPOS>ATOM
      1 C1         -0.0157    1.3058    0.0092 C.2       1 <0>        -0.1291
      2 C2          0.0021   -0.0041    0.0020 C.2       1 <0>        -0.1461
      3 C3         -1.2055   -0.9180    0.0020 C.3       1 <0>        -0.0437
      4 C4         -0.6711   -2.3653    0.0006 C.3       1 <0>         0.0807
      5 C5          0.7556   -2.2317    0.5911 C.3       1 <0>         0.0656
      6 C6          1.2372   -0.8871   -0.0145 C.3       1 <0>         0.1835
      7 N1          2.2948   -0.3032    0.8141 N.pl3     1 <0>        -0.4584
      8 C7          2.2109   -0.0142    2.1437 C.2       1 <0>         0.2877
      9 N2          3.3342    0.4941    2.5600 N.2       1 <0>        -0.4748
     10 C8          4.2080    0.5635    1.5272 C.ar      1 <0>        -0.1079
     11 C9          3.5535    0.0477    0.3957 C.ar      1 <0>         0.2933
     12 N3          4.2052   -0.0006   -0.7615 N.ar      1 <0>        -0.5608
     13 C10         5.4477    0.4251   -0.8500 C.ar      1 <0>         0.3600
     14 N4          6.1047    0.9145    0.1856 N.ar      1 <0>        -0.5935
     15 C11         5.5322    1.0104    1.3813 C.ar      1 <0>         0.5057
     16 N5          6.2292    1.5237    2.4610 N.pl3     1 <0>        -0.8189
     17 O1          0.7109   -2.1650    2.0178 O.3       1 <0>        -0.5472
     18 O2         -0.6170   -2.8792   -1.3317 O.3       1 <0>        -0.5500
     19 C12        -2.0485   -0.6706   -1.2507 C.3       1 <0>         0.0946
     20 O3         -2.6114    0.6416   -1.1945 O.3       1 <0>        -0.5758
     21 H1          0.9122    1.8585    0.0033 H         1 <0>         0.0966
     22 H2         -0.9582    1.8330    0.0166 H         1 <0>         0.1241
     23 H3         -1.8051   -0.7432    0.8954 H         1 <0>         0.1039
     24 H4         -1.2892   -3.0024    0.6331 H         1 <0>         0.0812
     25 H5          1.3907   -3.0534    0.2600 H         1 <0>         0.0799
     26 H6          1.5886   -1.0311   -1.0362 H         1 <0>         0.1325
     27 H7          1.3403   -0.1820    2.7605 H         1 <0>         0.2225
     28 H8          5.9486    0.3718   -1.8053 H         1 <0>         0.2035
     29 H9          5.8041    1.5781    3.3312 H         1 <0>         0.4186
     30 H10         7.1429    1.8290    2.3476 H         1 <0>         0.4098
     31 H11         0.3345   -2.9511    2.4367 H         1 <0>         0.3878
     32 H12        -0.2878   -3.7865   -1.3902 H         1 <0>         0.3851
     33 H13        -1.4184   -0.7581   -2.1357 H         1 <0>         0.0573
     34 H14        -2.8498   -1.4079   -1.3008 H         1 <0>         0.0500
     35 H15        -3.1596    0.8675   -1.9585 H         1 <0>         0.3825
@<TRIPOS>BOND
     1    1    2 2
     2    1   21 1
     3    1   22 1
     4    2    6 1
     5    2    3 1
     6    3    4 1
     7    3   19 1
     8    3   23 1
     9    4    5 1
    10    4   18 1
    11    4   24 1
    12    5    6 1
    13    5   17 1
    14    5   25 1
    15    6    7 1
    16    6   26 1
    17    7   11 1
    18    7    8 1
    19    8    9 2
    20    8   27 1
    21    9   10 1
    22   10   15 ar
    23   10   11 ar
    24   11   12 ar
    25   12   13 ar
    26   13   14 ar
    27   13   28 1
    28   14   15 ar
    29   15   16 1
    30   16   29 1
    31   16   30 1
    32   17   31 1
    33   18   32 1
    34   19   20 1
    35   19   33 1
    36   19   34 1
    37   20   35 1
@<TRIPOS>MOLECULE
CHEMBL53931__3
   35    37     0     0     0
SMALL
USER_CHARGES

@<TRIPOS>ATOM
      1 C1         -0.3739    1.0391   -0.2872 C.2       1 <0>        -0.1287
      2 C2         -0.1305   -0.2395   -0.1385 C.2       1 <0>        -0.1459
      3 C3         -1.1639   -1.3496   -0.0651 C.3       1 <0>        -0.0455
      4 C4         -0.3960   -2.6214   -0.5033 C.3       1 <0>         0.0770
      5 C5          0.9991   -2.4023    0.1351 C.3       1 <0>         0.0670
      6 C6          1.2340   -0.8848   -0.0145 C.3       1 <0>         0.1787
      7 N1          2.0269   -0.6142   -1.2163 N.pl3     1 <0>        -0.4594
      8 C7          1.6452   -0.8475   -2.5039 C.2       1 <0>         0.2564
      9 N2          2.5930   -0.4893   -3.3205 N.2       1 <0>        -0.4687
     10 C8          3.6403   -0.0047   -2.6110 C.ar      1 <0>        -0.1109
     11 C9          3.2875   -0.0739   -1.2525 C.ar      1 <0>         0.2981
     12 N3          4.1527    0.3516   -0.3380 N.ar      1 <0>        -0.5591
     13 C10         5.3239    0.8346   -0.6958 C.ar      1 <0>         0.3626
     14 N4          5.6984    0.9226   -1.9590 N.ar      1 <0>        -0.5928
     15 C11         4.9035    0.5136   -2.9427 C.ar      1 <0>         0.5068
     16 N5          5.3043    0.6109   -4.2637 N.pl3     1 <0>        -0.8184
     17 O1          0.9856   -2.7801    1.5132 O.3       1 <0>        -0.5435
     18 O2         -0.2981   -2.6905   -1.9273 O.3       1 <0>        -0.5512
     19 C12        -2.3211   -1.0667   -1.0251 C.3       1 <0>         0.0909
     20 O3         -3.0351    0.0895   -0.5828 O.3       1 <0>        -0.5731
     21 H1          0.4441    1.7429   -0.3315 H         1 <0>         0.0976
     22 H2         -1.3923    1.3889   -0.3699 H         1 <0>         0.1336
     23 H3         -1.5324   -1.4599    0.9548 H         1 <0>         0.1105
     24 H4         -0.8695   -3.5175   -0.1023 H         1 <0>         0.0834
     25 H5          1.7611   -2.9606   -0.4087 H         1 <0>         0.0751
     26 H6          1.7490   -0.5011    0.8662 H         1 <0>         0.1237
     27 H7          0.6962   -1.2680   -2.8024 H         1 <0>         0.2354
     28 H8          6.0038    1.1719    0.0725 H         1 <0>         0.2044
     29 H9          4.7107    0.3194   -4.9733 H         1 <0>         0.4186
     30 H10         6.1788    0.9705   -4.4800 H         1 <0>         0.4103
     31 H11         0.7778   -3.7125    1.6633 H         1 <0>         0.3884
     32 H12         0.1744   -3.4694   -2.2517 H         1 <0>         0.3878
     33 H13        -1.9278   -0.8899   -2.0262 H         1 <0>         0.0589
     34 H14        -2.9943   -1.9238   -1.0452 H         1 <0>         0.0493
     35 H15        -3.7843    0.3282   -1.1456 H         1 <0>         0.3825
@<TRIPOS>BOND
     1    1    2 2
     2    1   21 1
     3    1   22 1
     4    2    6 1
     5    2    3 1
     6    3    4 1
     7    3   19 1
     8    3   23 1
     9    4    5 1
    10    4   18 1
    11    4   24 1
    12    5    6 1
    13    5   17 1
    14    5   25 1
    15    6    7 1
    16    6   26 1
    17    7   11 1
    18    7    8 1
    19    8    9 2
    20    8   27 1
    21    9   10 1
    22   10   15 ar
    23   10   11 ar
    24   11   12 ar
    25   12   13 ar
    26   13   14 ar
    27   13   28 1
    28   14   15 ar
    29   15   16 1
    30   16   29 1
    31   16   30 1
    32   17   31 1
    33   18   32 1
    34   19   20 1
    35   19   33 1
    36   19   34 1
    37   20   35 1
@<TRIPOS>MOLECULE
CHEMBL53931__4
   35    37     0     0     0
SMALL
USER_CHARGES

@<TRIPOS>ATOM
      1 C1         -0.0157    1.3058    0.0092 C.2       1 <0>        -0.1159
      2 C2          0.0021   -0.0041    0.0020 C.2       1 <0>        -0.1548
      3 C3         -1.2055   -0.9180    0.0020 C.3       1 <0>        -0.0489
      4 C4         -0.6711   -2.3653    0.0006 C.3       1 <0>         0.0791
      5 C5          0.7556   -2.2317    0.5911 C.3       1 <0>         0.0636
      6 C6          1.2372   -0.8871   -0.0145 C.3       1 <0>         0.1806
      7 N1          2.2948   -0.3032    0.8141 N.pl3     1 <0>        -0.4600
      8 C7          2.2109   -0.0142    2.1437 C.2       1 <0>         0.2520
      9 N2          3.3342    0.4941    2.5600 N.2       1 <0>        -0.4587
     10 C8          4.2080    0.5635    1.5272 C.ar      1 <0>        -0.1127
     11 C9          3.5535    0.0477    0.3957 C.ar      1 <0>         0.3080
     12 N3          4.2052   -0.0006   -0.7615 N.ar      1 <0>        -0.5586
     13 C10         5.4477    0.4251   -0.8500 C.ar      1 <0>         0.3652
     14 N4          6.1047    0.9145    0.1856 N.ar      1 <0>        -0.5933
     15 C11         5.5322    1.0104    1.3813 C.ar      1 <0>         0.5093
     16 N5          6.2292    1.5237    2.4610 N.pl3     1 <0>        -0.8177
     17 O1          1.5882   -3.3089    0.1570 O.3       1 <0>        -0.5496
     18 O2         -1.4815   -3.2006    0.8298 O.3       1 <0>        -0.5523
     19 C12        -2.0485   -0.6706   -1.2507 C.3       1 <0>         0.0874
     20 O3         -2.6114    0.6416   -1.1945 O.3       1 <0>        -0.5696
     21 H1          0.9122    1.8585    0.0033 H         1 <0>         0.1005
     22 H2         -0.9582    1.8330    0.0166 H         1 <0>         0.1278
     23 H3         -1.8051   -0.7432    0.8954 H         1 <0>         0.1076
     24 H4         -0.6298   -2.7573   -1.0157 H         1 <0>         0.0847
     25 H5          0.7215   -2.1809    1.6793 H         1 <0>         0.0873
     26 H6          1.5886   -1.0311   -1.0362 H         1 <0>         0.1298
     27 H7          1.3403   -0.1820    2.7605 H         1 <0>         0.2173
     28 H8          5.9486    0.3718   -1.8053 H         1 <0>         0.2048
     29 H9          5.8041    1.5781    3.3312 H         1 <0>         0.4188
     30 H10         7.1429    1.8290    2.3476 H         1 <0>         0.4107
     31 H11         1.2784   -4.1819    0.4345 H         1 <0>         0.3841
     32 H12        -1.1897   -4.1218    0.8648 H         1 <0>         0.3839
     33 H13        -1.4184   -0.7581   -2.1357 H         1 <0>         0.0500
     34 H14        -2.8498   -1.4079   -1.3008 H         1 <0>         0.0550
     35 H15        -3.1596    0.8675   -1.9585 H         1 <0>         0.3845
@<TRIPOS>BOND
     1    1    2 2
     2    1   21 1
     3    1   22 1
     4    2    6 1
     5    2    3 1
     6    3    4 1
     7    3   19 1
     8    3   23 1
     9    4    5 1
    10    4   18 1
    11    4   24 1
    12    5    6 1
    13    5   17 1
    14    5   25 1
    15    6    7 1
    16    6   26 1
    17    7   11 1
    18    7    8 1
    19    8    9 2
    20    8   27 1
    21    9   10 1
    22   10   15 ar
    23   10   11 ar
    24   11   12 ar
    25   12   13 ar
    26   13   14 ar
    27   13   28 1
    28   14   15 ar
    29   15   16 1
    30   16   29 1
    31   16   30 1
    32   17   31 1
    33   18   32 1
    34   19   20 1
    35   19   33 1
    36   19   34 1
    37   20   35 1
@<TRIPOS>MOLECULE
CHEMBL53931__5
   35    37     0     0     0
SMALL
USER_CHARGES

@<TRIPOS>ATOM
      1 C1         -0.3543    1.0731   -0.0745 C.2       1 <0>        -0.1040
      2 C2         -0.1243   -0.2150   -0.0117 C.2       1 <0>        -0.1613
      3 C3         -1.1674   -1.3099    0.0703 C.3       1 <0>        -0.0552
      4 C4         -0.4053   -2.6499    0.1321 C.3       1 <0>         0.0692
      5 C5          0.9913   -2.2547    0.6754 C.3       1 <0>         0.0632
      6 C6          1.2372   -0.8871   -0.0145 C.3       1 <0>         0.1780
      7 N1          1.7095   -1.0806   -1.3877 N.pl3     1 <0>        -0.4438
      8 C7          1.0443   -1.7285   -2.3858 C.2       1 <0>         0.2475
      9 N2          1.7543   -1.7131   -3.4763 N.2       1 <0>        -0.4607
     10 C8          2.9170   -1.0563   -3.2482 C.ar      1 <0>        -0.1117
     11 C9          2.8999   -0.6379   -1.9068 C.ar      1 <0>         0.3115
     12 N3          3.9371    0.0417   -1.4289 N.ar      1 <0>        -0.5600
     13 C10         4.9670    0.3234   -2.1990 C.ar      1 <0>         0.3648
     14 N4          5.0269   -0.0456   -3.4654 N.ar      1 <0>        -0.5940
     15 C11         4.0407   -0.7363   -4.0286 C.ar      1 <0>         0.5094
     16 N5          4.1121   -1.1176   -5.3570 N.pl3     1 <0>        -0.8182
     17 O1          1.9796   -3.2069    0.2773 O.3       1 <0>        -0.5470
     18 O2         -1.0542   -3.5557    1.0268 O.3       1 <0>        -0.5510
     19 C12        -2.0621   -1.2739   -1.1703 C.3       1 <0>         0.0832
     20 O3         -2.8294   -0.0683   -1.1694 O.3       1 <0>        -0.5668
     21 H1          0.4713    1.7667   -0.1354 H         1 <0>         0.1078
     22 H2         -1.3696    1.4413   -0.0697 H         1 <0>         0.1282
     23 H3         -1.7710   -1.1828    0.9690 H         1 <0>         0.1100
     24 H4         -0.3195   -3.0879   -0.8624 H         1 <0>         0.0775
     25 H5          0.9693   -2.1475    1.7599 H         1 <0>         0.1007
     26 H6          1.9543   -0.2969    0.5561 H         1 <0>         0.1230
     27 H7          0.0716   -2.1871   -2.2860 H         1 <0>         0.2104
     28 H8          5.7937    0.8772   -1.7793 H         1 <0>         0.2045
     29 H9          3.3810   -1.6117   -5.7597 H         1 <0>         0.4184
     30 H10         4.8933   -0.8907   -5.8854 H         1 <0>         0.4105
     31 H11         1.8207   -4.1010    0.6096 H         1 <0>         0.3834
     32 H12        -0.6161   -4.4144    1.1033 H         1 <0>         0.3837
     33 H13        -1.4424   -1.3094   -2.0663 H         1 <0>         0.0466
     34 H14        -2.7339   -2.1322   -1.1589 H         1 <0>         0.0574
     35 H15        -3.4208    0.0220   -1.9292 H         1 <0>         0.3852
@<TRIPOS>BOND
     1    1    2 2
     2    1   21 1
     3    1   22 1
     4    2    6 1
     5    2    3 1
     6    3    4 1
     7    3   19 1
     8    3   23 1
     9    4    5 1
    10    4   18 1
    11    4   24 1
    12    5    6 1
    13    5   17 1
    14    5   25 1
    15    6    7 1
    16    6   26 1
    17    7   11 1
    18    7    8 1
    19    8    9 2
    20    8   27 1
    21    9   10 1
    22   10   15 ar
    23   10   11 ar
    24   11   12 ar
    25   12   13 ar
    26   13   14 ar
    27   13   28 1
    28   14   15 ar
    29   15   16 1
    30   16   29 1
    31   16   30 1
    32   17   31 1
    33   18   32 1
    34   19   20 1
    35   19   33 1
    36   19   34 1
    37   20   35 1
@<TRIPOS>MOLECULE
CHEMBL53931__6
   35    37     0     0     0
SMALL
USER_CHARGES

@<TRIPOS>ATOM
      1 C1         -0.0157    1.3058    0.0092 C.2       1 <0>        -0.1244
      2 C2          0.0021   -0.0041    0.0020 C.2       1 <0>        -0.1477
      3 C3         -1.2055   -0.9180    0.0020 C.3       1 <0>        -0.0456
      4 C4         -0.6711   -2.3653    0.0006 C.3       1 <0>         0.0793
      5 C5          0.7556   -2.2317    0.5911 C.3       1 <0>         0.0654
      6 C6          1.2372   -0.8871   -0.0145 C.3       1 <0>         0.1789
      7 N1          2.2948   -0.3032    0.8141 N.pl3     1 <0>        -0.4574
      8 C7          2.2109   -0.0142    2.1437 C.2       1 <0>         0.2901
      9 N2          3.3342    0.4941    2.5600 N.2       1 <0>        -0.4747
     10 C8          4.2080    0.5635    1.5272 C.ar      1 <0>        -0.1074
     11 C9          3.5535    0.0477    0.3957 C.ar      1 <0>         0.2927
     12 N3          4.2052   -0.0006   -0.7615 N.ar      1 <0>        -0.5617
     13 C10         5.4477    0.4251   -0.8500 C.ar      1 <0>         0.3602
     14 N4          6.1047    0.9145    0.1856 N.ar      1 <0>        -0.5935
     15 C11         5.5322    1.0104    1.3813 C.ar      1 <0>         0.5060
     16 N5          6.2292    1.5237    2.4610 N.pl3     1 <0>        -0.8186
     17 O1          0.7109   -2.1650    2.0178 O.3       1 <0>        -0.5426
     18 O2         -1.4815   -3.2006    0.8298 O.3       1 <0>        -0.5487
     19 C12        -2.0485   -0.6706   -1.2507 C.3       1 <0>         0.0862
     20 O3         -2.6114    0.6416   -1.1945 O.3       1 <0>        -0.5691
     21 H1          0.9122    1.8585    0.0033 H         1 <0>         0.0982
     22 H2         -0.9582    1.8330    0.0166 H         1 <0>         0.1248
     23 H3         -1.8051   -0.7432    0.8954 H         1 <0>         0.1064
     24 H4         -0.6298   -2.7573   -1.0157 H         1 <0>         0.0814
     25 H5          1.3907   -3.0534    0.2600 H         1 <0>         0.0790
     26 H6          1.5886   -1.0311   -1.0362 H         1 <0>         0.1312
     27 H7          1.3403   -0.1820    2.7605 H         1 <0>         0.2230
     28 H8          5.9486    0.3718   -1.8053 H         1 <0>         0.2034
     29 H9          5.8041    1.5781    3.3312 H         1 <0>         0.4188
     30 H10         7.1429    1.8290    2.3476 H         1 <0>         0.4099
     31 H11         0.3345   -2.9511    2.4367 H         1 <0>         0.3879
     32 H12        -1.1897   -4.1218    0.8648 H         1 <0>         0.3833
     33 H13        -1.4184   -0.7581   -2.1357 H         1 <0>         0.0484
     34 H14        -2.8498   -1.4079   -1.3008 H         1 <0>         0.0534
     35 H15        -3.1596    0.8675   -1.9585 H         1 <0>         0.3834
@<TRIPOS>BOND
     1    1    2 2
     2    1   21 1
     3    1   22 1
     4    2    6 1
     5    2    3 1
     6    3    4 1
     7    3   19 1
     8    3   23 1
     9    4    5 1
    10    4   18 1
    11    4   24 1
    12    5    6 1
    13    5   17 1
    14    5   25 1
    15    6    7 1
    16    6   26 1
    17    7   11 1
    18    7    8 1
    19    8    9 2
    20    8   27 1
    21    9   10 1
    22   10   15 ar
    23   10   11 ar
    24   11   12 ar
    25   12   13 ar
    26   13   14 ar
    27   13   28 1
    28   14   15 ar
    29   15   16 1
    30   16   29 1
    31   16   30 1
    32   17   31 1
    33   18   32 1
    34   19   20 1
    35   19   33 1
    36   19   34 1
    37   20   35 1
@<TRIPOS>MOLECULE
CHEMBL53931__7
   35    37     0     0     0
SMALL
USER_CHARGES

@<TRIPOS>ATOM
      1 C1         -0.3489    1.0776   -0.0732 C.2       1 <0>        -0.1123
      2 C2         -0.1225   -0.2113   -0.0116 C.2       1 <0>        -0.1485
      3 C3         -1.1686   -1.3034    0.0690 C.3       1 <0>        -0.0522
      4 C4         -0.4102   -2.6455    0.1298 C.3       1 <0>         0.0698
      5 C5          0.9873   -2.2546    0.6740 C.3       1 <0>         0.0692
      6 C6          1.2372   -0.8871   -0.0145 C.3       1 <0>         0.1728
      7 N1          1.7095   -1.0806   -1.3877 N.pl3     1 <0>        -0.4559
      8 C7          1.0443   -1.7285   -2.3858 C.2       1 <0>         0.2377
      9 N2          1.7543   -1.7131   -3.4763 N.2       1 <0>        -0.4542
     10 C8          2.9170   -1.0563   -3.2482 C.ar      1 <0>        -0.1129
     11 C9          2.8999   -0.6379   -1.9068 C.ar      1 <0>         0.3086
     12 N3          3.9371    0.0417   -1.4289 N.ar      1 <0>        -0.5596
     13 C10         4.9670    0.3234   -2.1990 C.ar      1 <0>         0.3689
     14 N4          5.0269   -0.0456   -3.4654 N.ar      1 <0>        -0.5921
     15 C11         4.0407   -0.7363   -4.0286 C.ar      1 <0>         0.5116
     16 N5          4.1121   -1.1176   -5.3570 N.pl3     1 <0>        -0.8163
     17 O1          0.9583   -2.1154    2.0959 O.3       1 <0>        -0.5355
     18 O2         -1.0619   -3.5504    1.0234 O.3       1 <0>        -0.5472
     19 C12        -2.0627   -1.2637   -1.1720 C.3       1 <0>         0.0825
     20 O3         -2.8267   -0.0561   -1.1702 O.3       1 <0>        -0.5660
     21 H1          0.4786    1.7689   -0.1332 H         1 <0>         0.1056
     22 H2         -1.3632    1.4485   -0.0686 H         1 <0>         0.1261
     23 H3         -1.7722   -1.1755    0.9676 H         1 <0>         0.1095
     24 H4         -0.3252   -3.0828   -0.8650 H         1 <0>         0.0751
     25 H5          1.7393   -2.9828    0.3699 H         1 <0>         0.0757
     26 H6          1.9557   -0.2994    0.5569 H         1 <0>         0.1279
     27 H7          0.0716   -2.1871   -2.2860 H         1 <0>         0.2152
     28 H8          5.7937    0.8772   -1.7793 H         1 <0>         0.2067
     29 H9          3.3810   -1.6117   -5.7597 H         1 <0>         0.4191
     30 H10         4.8933   -0.8907   -5.8854 H         1 <0>         0.4116
     31 H11         0.7197   -2.9263    2.5657 H         1 <0>         0.3896
     32 H12        -0.6262   -4.4104    1.0992 H         1 <0>         0.3835
     33 H13        -1.4427   -1.3002   -2.0677 H         1 <0>         0.0452
     34 H14        -2.7368   -2.1202   -1.1616 H         1 <0>         0.0566
     35 H15        -3.4175    0.0366   -1.9301 H         1 <0>         0.3842
@<TRIPOS>BOND
     1    1    2 2
     2    1   21 1
     3    1   22 1
     4    2    6 1
     5    2    3 1
     6    3    4 1
     7    3   19 1
     8    3   23 1
     9    4    5 1
    10    4   18 1
    11    4   24 1
    12    5    6 1
    13    5   17 1
    14    5   25 1
    15    6    7 1
    16    6   26 1
    17    7   11 1
    18    7    8 1
    19    8    9 2
    20    8   27 1
    21    9   10 1
    22   10   15 ar
    23   10   11 ar
    24   11   12 ar
    25   12   13 ar
    26   13   14 ar
    27   13   28 1
    28   14   15 ar
    29   15   16 1
    30   16   29 1
    31   16   30 1
    32   17   31 1
    33   18   32 1
    34   19   20 1
    35   19   33 1
    36   19   34 1
    37   20   35 1
@<TRIPOS>MOLECULE
CHEMBL53931__8
   35    37     0     0     0
SMALL
USER_CHARGES

@<TRIPOS>ATOM
      1 C1         -0.0160    1.3056    0.0093 C.2       1 <0>        -0.1122
      2 C2          0.0019   -0.0043    0.0020 C.2       1 <0>        -0.1482
      3 C3         -1.2055   -0.9184    0.0019 C.3       1 <0>        -0.0521
      4 C4         -0.6709   -2.3655   -0.0180 C.3       1 <0>         0.0703
      5 C5          0.7506   -2.2248   -0.6192 C.3       1 <0>         0.0686
      6 C6          1.2372   -0.8871   -0.0145 C.3       1 <0>         0.1732
      7 N1          1.7350   -1.0962    1.3474 N.pl3     1 <0>        -0.4562
      8 C7          1.0209   -1.5836    2.4013 C.2       1 <0>         0.2382
      9 N2          1.7739   -1.6385    3.4613 N.2       1 <0>        -0.4543
     10 C8          3.0156   -1.1911    3.1559 C.ar      1 <0>        -0.1129
     11 C9          3.0071   -0.8429    1.7945 C.ar      1 <0>         0.3082
     12 N3          4.1209   -0.3752    1.2405 N.ar      1 <0>        -0.5595
     13 C10         5.2196   -0.2412    1.9531 C.ar      1 <0>         0.3688
     14 N4          5.2770   -0.5581    3.2337 N.ar      1 <0>        -0.5921
     15 C11         4.2110   -1.0252    3.8756 C.ar      1 <0>         0.5115
     16 N5          4.2811   -1.3556    5.2177 N.pl3     1 <0>        -0.8164
     17 O1          0.6936   -2.1417   -2.0446 O.3       1 <0>        -0.5358
     18 O2         -1.4884   -3.1913   -0.8497 O.3       1 <0>        -0.5471
     19 C12        -2.0377   -0.6857    1.2646 C.3       1 <0>         0.0828
     20 O3         -2.6012    0.6270    1.2285 O.3       1 <0>        -0.5661
     21 H1          0.9117    1.8584    0.0035 H         1 <0>         0.1056
     22 H2         -0.9586    1.8327    0.0167 H         1 <0>         0.1262
     23 H3         -1.8128   -0.7334   -0.8841 H         1 <0>         0.1095
     24 H4         -0.6208   -2.7692    0.9933 H         1 <0>         0.0752
     25 H5          1.3886   -3.0501   -0.3031 H         1 <0>         0.0760
     26 H6          2.0125   -0.4454   -0.6406 H         1 <0>         0.1281
     27 H7         -0.0169   -1.8801    2.3624 H         1 <0>         0.2149
     28 H8          6.1075    0.1418    1.4721 H         1 <0>         0.2067
     29 H9          3.4992   -1.7062    5.6723 H         1 <0>         0.4191
     30 H10         5.1121   -1.2365    5.7037 H         1 <0>         0.4116
     31 H11         0.3136   -2.9229   -2.4693 H         1 <0>         0.3892
     32 H12        -1.1968   -4.1120   -0.8979 H         1 <0>         0.3835
     33 H13        -2.8384   -1.4236    1.3132 H         1 <0>         0.0565
     34 H14        -1.3999   -0.7832    2.1431 H         1 <0>         0.0451
     35 H15        -3.1427    0.8439    1.9997 H         1 <0>         0.3842
@<TRIPOS>BOND
     1    1    2 2
     2    1   21 1
     3    1   22 1
     4    2    6 1
     5    2    3 1
     6    3    4 1
     7    3   19 1
     8    3   23 1
     9    4    5 1
    10    4   18 1
    11    4   24 1
    12    5    6 1
    13    5   17 1
    14    5   25 1
    15    6    7 1
    16    6   26 1
    17    7   11 1
    18    7    8 1
    19    8    9 2
    20    8   27 1
    21    9   10 1
    22   10   15 ar
    23   10   11 ar
    24   11   12 ar
    25   12   13 ar
    26   13   14 ar
    27   13   28 1
    28   14   15 ar
    29   15   16 1
    30   16   29 1
    31   16   30 1
    32   17   31 1
    33   18   32 1
    34   19   20 1
    35   19   33 1
    36   19   34 1
    37   20   35 1
@<TRIPOS>MOLECULE
CHEMBL53931__9
   35    37     0     0     0
SMALL
USER_CHARGES

@<TRIPOS>ATOM
      1 C1         -0.0157    1.3058    0.0092 C.2       1 <0>        -0.1243
      2 C2          0.0021   -0.0041    0.0020 C.2       1 <0>        -0.1475
      3 C3         -1.2055   -0.9180    0.0020 C.3       1 <0>        -0.0456
      4 C4         -0.6712   -2.3652   -0.0178 C.3       1 <0>         0.0796
      5 C5          0.7504   -2.2247   -0.6191 C.3       1 <0>         0.0652
      6 C6          1.2372   -0.8871   -0.0145 C.3       1 <0>         0.1788
      7 N1          2.2793   -0.2937   -0.8560 N.pl3     1 <0>        -0.4569
      8 C7          2.1666    0.0213   -2.1776 C.2       1 <0>         0.2907
      9 N2          3.2831    0.5316   -2.6097 N.2       1 <0>        -0.4748
     10 C8          4.1806    0.5765   -1.5960 C.ar      1 <0>        -0.1073
     11 C9          3.5455    0.0525   -0.4572 C.ar      1 <0>         0.2927
     12 N3          4.2189   -0.0096    0.6868 N.ar      1 <0>        -0.5617
     13 C10         5.4629    0.4155    0.7570 C.ar      1 <0>         0.3601
     14 N4          6.0999    0.9183   -0.2846 N.ar      1 <0>        -0.5934
     15 C11         5.5107    1.0123   -1.4723 C.ar      1 <0>         0.5059
     16 N5          6.1861    1.5418   -2.5579 N.pl3     1 <0>        -0.8187
     17 O1          0.6933   -2.1417   -2.0445 O.3       1 <0>        -0.5427
     18 O2         -1.4888   -3.1909   -0.8495 O.3       1 <0>        -0.5486
     19 C12        -2.0376   -0.6851    1.2647 C.3       1 <0>         0.0862
     20 O3         -2.6009    0.6277    1.2285 O.3       1 <0>        -0.5691
     21 H1          0.9122    1.8585    0.0033 H         1 <0>         0.0983
     22 H2         -0.9582    1.8330    0.0166 H         1 <0>         0.1249
     23 H3         -1.8128   -0.7329   -0.8841 H         1 <0>         0.1065
     24 H4         -0.6211   -2.7688    0.9934 H         1 <0>         0.0815
     25 H5          1.3882   -3.0501   -0.3030 H         1 <0>         0.0793
     26 H6          1.6076   -1.0427    0.9988 H         1 <0>         0.1304
     27 H7          1.2816   -0.1306   -2.7775 H         1 <0>         0.2225
     28 H8          5.9817    0.3508    1.7020 H         1 <0>         0.2034
     29 H9          5.7416    1.6155   -3.4168 H         1 <0>         0.4188
     30 H10         7.1042    1.8392   -2.4598 H         1 <0>         0.4099
     31 H11         0.3133   -2.9229   -2.4692 H         1 <0>         0.3876
     32 H12        -1.1973   -4.1117   -0.8976 H         1 <0>         0.3833
     33 H13        -2.8384   -1.4229    1.3133 H         1 <0>         0.0534
     34 H14        -1.3998   -0.7827    2.1432 H         1 <0>         0.0485
     35 H15        -3.1424    0.8447    1.9997 H         1 <0>         0.3834
@<TRIPOS>BOND
     1    1    2 2
     2    1   21 1
     3    1   22 1
     4    2    6 1
     5    2    3 1
     6    3    4 1
     7    3   19 1
     8    3   23 1
     9    4    5 1
    10    4   18 1
    11    4   24 1
    12    5    6 1
    13    5   17 1
    14    5   25 1
    15    6    7 1
    16    6   26 1
    17    7   11 1
    18    7    8 1
    19    8    9 2
    20    8   27 1
    21    9   10 1
    22   10   15 ar
    23   10   11 ar
    24   11   12 ar
    25   12   13 ar
    26   13   14 ar
    27   13   28 1
    28   14   15 ar
    29   15   16 1
    30   16   29 1
    31   16   30 1
    32   17   31 1
    33   18   32 1
    34   19   20 1
    35   19   33 1
    36   19   34 1
    37   20   35 1
@<TRIPOS>MOLECULE
CHEMBL53931__10
   35    37     0     0     0
SMALL
USER_CHARGES

@<TRIPOS>ATOM
      1 C1         -0.0208    1.3028    0.0106 C.2       1 <0>        -0.1040
      2 C2          0.0000   -0.0070    0.0023 C.2       1 <0>        -0.1609
      3 C3         -1.2055   -0.9237    0.0011 C.3       1 <0>        -0.0552
      4 C4         -0.6677   -2.3696   -0.0198 C.3       1 <0>         0.0698
      5 C5          0.7537   -2.2254   -0.6204 C.3       1 <0>         0.0626
      6 C6          1.2372   -0.8871   -0.0145 C.3       1 <0>         0.1781
      7 N1          1.7350   -1.0962    1.3474 N.pl3     1 <0>        -0.4440
      8 C7          1.0209   -1.5836    2.4013 C.2       1 <0>         0.2482
      9 N2          1.7739   -1.6385    3.4613 N.2       1 <0>        -0.4608
     10 C8          3.0156   -1.1911    3.1559 C.ar      1 <0>        -0.1118
     11 C9          3.0071   -0.8429    1.7945 C.ar      1 <0>         0.3115
     12 N3          4.1209   -0.3752    1.2405 N.ar      1 <0>        -0.5599
     13 C10         5.2196   -0.2412    1.9531 C.ar      1 <0>         0.3646
     14 N4          5.2770   -0.5581    3.2337 N.ar      1 <0>        -0.5940
     15 C11         4.2110   -1.0252    3.8756 C.ar      1 <0>         0.5093
     16 N5          4.2811   -1.3556    5.2177 N.pl3     1 <0>        -0.8183
     17 O1          1.5923   -3.3059   -0.2066 O.3       1 <0>        -0.5466
     18 O2         -1.4831   -3.1965   -0.8525 O.3       1 <0>        -0.5510
     19 C12        -2.0385   -0.6938    1.2637 C.3       1 <0>         0.0836
     20 O3         -2.6049    0.6177    1.2284 O.3       1 <0>        -0.5669
     21 H1          0.9058    1.8577    0.0056 H         1 <0>         0.1078
     22 H2         -0.9646    1.8279    0.0181 H         1 <0>         0.1283
     23 H3         -1.8128   -0.7393   -0.8850 H         1 <0>         0.1100
     24 H4         -0.6171   -2.7740    0.9911 H         1 <0>         0.0775
     25 H5          0.7104   -2.1612   -1.7077 H         1 <0>         0.0997
     26 H6          2.0117   -0.4432   -0.6400 H         1 <0>         0.1231
     27 H7         -0.0169   -1.8801    2.3624 H         1 <0>         0.2100
     28 H8          6.1075    0.1418    1.4721 H         1 <0>         0.2044
     29 H9          3.4992   -1.7062    5.6723 H         1 <0>         0.4184
     30 H10         5.1121   -1.2365    5.7037 H         1 <0>         0.4104
     31 H11         1.2822   -4.1761   -0.4923 H         1 <0>         0.3836
     32 H12        -1.1895   -4.1166   -0.9013 H         1 <0>         0.3837
     33 H13        -2.8377   -1.4335    1.3114 H         1 <0>         0.0573
     34 H14        -1.4008   -0.7907    2.1423 H         1 <0>         0.0465
     35 H15        -3.1472    0.8328    1.9996 H         1 <0>         0.3852
@<TRIPOS>BOND
     1    1    2 2
     2    1   21 1
     3    1   22 1
     4    2    6 1
     5    2    3 1
     6    3    4 1
     7    3   19 1
     8    3   23 1
     9    4    5 1
    10    4   18 1
    11    4   24 1
    12    5    6 1
    13    5   17 1
    14    5   25 1
    15    6    7 1
    16    6   26 1
    17    7   11 1
    18    7    8 1
    19    8    9 2
    20    8   27 1
    21    9   10 1
    22   10   15 ar
    23   10   11 ar
    24   11   12 ar
    25   12   13 ar
    26   13   14 ar
    27   13   28 1
    28   14   15 ar
    29   15   16 1
    30   16   29 1
    31   16   30 1
    32   17   31 1
    33   18   32 1
    34   19   20 1
    35   19   33 1
    36   19   34 1
    37   20   35 1
@<TRIPOS>MOLECULE
CHEMBL53931__11
   35    37     0     0     0
SMALL
USER_CHARGES

@<TRIPOS>ATOM
      1 C1         -0.0157    1.3058    0.0092 C.2       1 <0>        -0.1159
      2 C2          0.0021   -0.0041    0.0020 C.2       1 <0>        -0.1543
      3 C3         -1.2055   -0.9180    0.0020 C.3       1 <0>        -0.0490
      4 C4         -0.6712   -2.3652   -0.0178 C.3       1 <0>         0.0796
      5 C5          0.7504   -2.2247   -0.6191 C.3       1 <0>         0.0636
      6 C6          1.2372   -0.8871   -0.0145 C.3       1 <0>         0.1800
      7 N1          2.2793   -0.2937   -0.8560 N.pl3     1 <0>        -0.4601
      8 C7          2.1666    0.0213   -2.1776 C.2       1 <0>         0.2519
      9 N2          3.2831    0.5316   -2.6097 N.2       1 <0>        -0.4586
     10 C8          4.1806    0.5765   -1.5960 C.ar      1 <0>        -0.1128
     11 C9          3.5455    0.0525   -0.4572 C.ar      1 <0>         0.3082
     12 N3          4.2189   -0.0096    0.6868 N.ar      1 <0>        -0.5585
     13 C10         5.4629    0.4155    0.7570 C.ar      1 <0>         0.3653
     14 N4          6.0999    0.9183   -0.2846 N.ar      1 <0>        -0.5933
     15 C11         5.5107    1.0123   -1.4723 C.ar      1 <0>         0.5094
     16 N5          6.1861    1.5418   -2.5579 N.pl3     1 <0>        -0.8176
     17 O1          1.5866   -3.3069   -0.2047 O.3       1 <0>        -0.5494
     18 O2         -1.4888   -3.1909   -0.8495 O.3       1 <0>        -0.5522
     19 C12        -2.0376   -0.6851    1.2647 C.3       1 <0>         0.0874
     20 O3         -2.6009    0.6277    1.2285 O.3       1 <0>        -0.5696
     21 H1          0.9122    1.8585    0.0033 H         1 <0>         0.1005
     22 H2         -0.9582    1.8330    0.0166 H         1 <0>         0.1280
     23 H3         -1.8128   -0.7329   -0.8841 H         1 <0>         0.1077
     24 H4         -0.6211   -2.7688    0.9934 H         1 <0>         0.0848
     25 H5          0.7069   -2.1614   -1.7064 H         1 <0>         0.0864
     26 H6          1.6076   -1.0427    0.9988 H         1 <0>         0.1294
     27 H7          1.2816   -0.1306   -2.7775 H         1 <0>         0.2173
     28 H8          5.9817    0.3508    1.7020 H         1 <0>         0.2048
     29 H9          5.7416    1.6155   -3.4168 H         1 <0>         0.4188
     30 H10         7.1042    1.8392   -2.4598 H         1 <0>         0.4107
     31 H11         1.2744   -4.1766   -0.4895 H         1 <0>         0.3843
     32 H12        -1.1973   -4.1117   -0.8976 H         1 <0>         0.3839
     33 H13        -2.8384   -1.4229    1.3133 H         1 <0>         0.0550
     34 H14        -1.3998   -0.7827    2.1432 H         1 <0>         0.0500
     35 H15        -3.1424    0.8447    1.9997 H         1 <0>         0.3845
@<TRIPOS>BOND
     1    1    2 2
     2    1   21 1
     3    1   22 1
     4    2    6 1
     5    2    3 1
     6    3    4 1
     7    3   19 1
     8    3   23 1
     9    4    5 1
    10    4   18 1
    11    4   24 1
    12    5    6 1
    13    5   17 1
    14    5   25 1
    15    6    7 1
    16    6   26 1
    17    7   11 1
    18    7    8 1
    19    8    9 2
    20    8   27 1
    21    9   10 1
    22   10   15 ar
    23   10   11 ar
    24   11   12 ar
    25   12   13 ar
    26   13   14 ar
    27   13   28 1
    28   14   15 ar
    29   15   16 1
    30   16   29 1
    31   16   30 1
    32   17   31 1
    33   18   32 1
    34   19   20 1
    35   19   33 1
    36   19   34 1
    37   20   35 1
@<TRIPOS>MOLECULE
CHEMBL53931__12
   35    37     0     0     0
SMALL
USER_CHARGES

@<TRIPOS>ATOM
      1 C1          0.1913    1.4116   -0.0502 C.2       1 <0>        -0.1260
      2 C2          0.0887    0.1061   -0.0127 C.2       1 <0>        -0.1420
      3 C3         -1.1975   -0.6921    0.0337 C.3       1 <0>        -0.0458
      4 C4         -0.7985   -2.1822    0.0568 C.3       1 <0>         0.0748
      5 C5          0.6203   -2.1934   -0.5667 C.3       1 <0>         0.0649
      6 C6          1.2372   -0.8871   -0.0145 C.3       1 <0>         0.1808
      7 N1          1.7350   -1.0962    1.3474 N.pl3     1 <0>        -0.4483
      8 C7          1.4609   -0.3204    2.4343 C.2       1 <0>         0.2669
      9 N2          2.0672   -0.7950    3.4835 N.2       1 <0>        -0.4633
     10 C8          2.7669   -1.9022    3.1377 C.ar      1 <0>        -0.1069
     11 C9          2.5578   -2.1119    1.7640 C.ar      1 <0>         0.3022
     12 N3          3.1384   -3.1513    1.1735 N.ar      1 <0>        -0.5622
     13 C10         3.8973   -3.9769    1.8631 C.ar      1 <0>         0.3616
     14 N4          4.1203   -3.8228    3.1554 N.ar      1 <0>        -0.5938
     15 C11         3.5892   -2.8076    3.8293 C.ar      1 <0>         0.5085
     16 N5          3.8278   -2.6550    5.1839 N.pl3     1 <0>        -0.8181
     17 O1          0.5488   -2.1524   -1.9934 O.3       1 <0>        -0.5442
     18 O2         -0.7609   -2.6712    1.3990 O.3       1 <0>        -0.5461
     19 C12        -1.9848   -0.3419    1.2980 C.3       1 <0>         0.0948
     20 O3         -2.4259    1.0153    1.2240 O.3       1 <0>        -0.5756
     21 H1          1.1657    1.8758   -0.0867 H         1 <0>         0.1071
     22 H2         -0.6987    2.0234   -0.0491 H         1 <0>         0.1283
     23 H3         -1.7990   -0.4811   -0.8505 H         1 <0>         0.1032
     24 H4         -1.4872   -2.7724   -0.5478 H         1 <0>         0.0755
     25 H5          1.1847   -3.0632   -0.2306 H         1 <0>         0.0944
     26 H6          2.0399   -0.5398   -0.6651 H         1 <0>         0.1062
     27 H7          0.8335    0.5586    2.4258 H         1 <0>         0.2144
     28 H8          4.3544   -4.8118    1.3527 H         1 <0>         0.2031
     29 H9          3.4254   -1.9164    5.6670 H         1 <0>         0.4188
     30 H10         4.3974   -3.2867    5.6502 H         1 <0>         0.4103
     31 H11         0.0921   -2.9089   -2.3861 H         1 <0>         0.3879
     32 H12        -0.5153   -3.6037    1.4711 H         1 <0>         0.3803
     33 H13        -2.8491   -1.0008    1.3820 H         1 <0>         0.0494
     34 H14        -1.3450   -0.4689    2.1713 H         1 <0>         0.0564
     35 H15        -2.9330    1.3066    1.9941 H         1 <0>         0.3828
@<TRIPOS>BOND
     1    1    2 2
     2    1   21 1
     3    1   22 1
     4    2    6 1
     5    2    3 1
     6    3    4 1
     7    3   19 1
     8    3   23 1
     9    4    5 1
    10    4   18 1
    11    4   24 1
    12    5    6 1
    13    5   17 1
    14    5   25 1
    15    6    7 1
    16    6   26 1
    17    7   11 1
    18    7    8 1
    19    8    9 2
    20    8   27 1
    21    9   10 1
    22   10   15 ar
    23   10   11 ar
    24   11   12 ar
    25   12   13 ar
    26   13   14 ar
    27   13   28 1
    28   14   15 ar
    29   15   16 1
    30   16   29 1
    31   16   30 1
    32   17   31 1
    33   18   32 1
    34   19   20 1
    35   19   33 1
    36   19   34 1
    37   20   35 1
@<TRIPOS>MOLECULE
CHEMBL53931__13
   35    37     0     0     0
SMALL
USER_CHARGES

@<TRIPOS>ATOM
      1 C1         -0.0157    1.3058    0.0092 C.2       1 <0>        -0.1290
      2 C2          0.0021   -0.0041    0.0020 C.2       1 <0>        -0.1459
      3 C3         -1.2055   -0.9180    0.0020 C.3       1 <0>        -0.0438
      4 C4         -0.6712   -2.3652   -0.0178 C.3       1 <0>         0.0809
      5 C5          0.7504   -2.2247   -0.6191 C.3       1 <0>         0.0656
      6 C6          1.2372   -0.8871   -0.0145 C.3       1 <0>         0.1833
      7 N1          2.2793   -0.2937   -0.8560 N.pl3     1 <0>        -0.4580
      8 C7          2.1666    0.0213   -2.1776 C.2       1 <0>         0.2883
      9 N2          3.2831    0.5316   -2.6097 N.2       1 <0>        -0.4750
     10 C8          4.1806    0.5765   -1.5960 C.ar      1 <0>        -0.1079
     11 C9          3.5455    0.0525   -0.4572 C.ar      1 <0>         0.2933
     12 N3          4.2189   -0.0096    0.6868 N.ar      1 <0>        -0.5608
     13 C10         5.4629    0.4155    0.7570 C.ar      1 <0>         0.3600
     14 N4          6.0999    0.9183   -0.2846 N.ar      1 <0>        -0.5935
     15 C11         5.5107    1.0123   -1.4723 C.ar      1 <0>         0.5057
     16 N5          6.1861    1.5418   -2.5579 N.pl3     1 <0>        -0.8189
     17 O1          0.6933   -2.1417   -2.0445 O.3       1 <0>        -0.5474
     18 O2         -0.6055   -2.8944    1.3079 O.3       1 <0>        -0.5500
     19 C12        -2.0376   -0.6851    1.2647 C.3       1 <0>         0.0946
     20 O3         -2.6009    0.6277    1.2285 O.3       1 <0>        -0.5758
     21 H1          0.9122    1.8585    0.0033 H         1 <0>         0.0966
     22 H2         -0.9582    1.8330    0.0166 H         1 <0>         0.1242
     23 H3         -1.8128   -0.7329   -0.8841 H         1 <0>         0.1040
     24 H4         -1.2948   -2.9950   -0.6522 H         1 <0>         0.0813
     25 H5          1.3882   -3.0501   -0.3030 H         1 <0>         0.0802
     26 H6          1.6076   -1.0427    0.9988 H         1 <0>         0.1317
     27 H7          1.2816   -0.1306   -2.7775 H         1 <0>         0.2220
     28 H8          5.9817    0.3508    1.7020 H         1 <0>         0.2035
     29 H9          5.7416    1.6155   -3.4168 H         1 <0>         0.4186
     30 H10         7.1042    1.8392   -2.4598 H         1 <0>         0.4098
     31 H11         0.3133   -2.9229   -2.4692 H         1 <0>         0.3874
     32 H12        -0.2759   -3.8023    1.3531 H         1 <0>         0.3851
     33 H13        -2.8384   -1.4229    1.3133 H         1 <0>         0.0500
     34 H14        -1.3998   -0.7827    2.1432 H         1 <0>         0.0574
     35 H15        -3.1424    0.8447    1.9997 H         1 <0>         0.3825
@<TRIPOS>BOND
     1    1    2 2
     2    1   21 1
     3    1   22 1
     4    2    6 1
     5    2    3 1
     6    3    4 1
     7    3   19 1
     8    3   23 1
     9    4    5 1
    10    4   18 1
    11    4   24 1
    12    5    6 1
    13    5   17 1
    14    5   25 1
    15    6    7 1
    16    6   26 1
    17    7   11 1
    18    7    8 1
    19    8    9 2
    20    8   27 1
    21    9   10 1
    22   10   15 ar
    23   10   11 ar
    24   11   12 ar
    25   12   13 ar
    26   13   14 ar
    27   13   28 1
    28   14   15 ar
    29   15   16 1
    30   16   29 1
    31   16   30 1
    32   17   31 1
    33   18   32 1
    34   19   20 1
    35   19   33 1
    36   19   34 1
    37   20   35 1
@<TRIPOS>MOLECULE
CHEMBL53931__14
   35    37     0     0     0
SMALL
USER_CHARGES

@<TRIPOS>ATOM
      1 C1         -0.3950    0.8879    0.2026 C.2       1 <0>        -0.0860
      2 C2         -0.1271   -0.3844    0.0427 C.2       1 <0>        -0.1445
      3 C3         -1.1372   -1.4987   -0.1352 C.3       1 <0>        -0.0444
      4 C4         -0.3359   -2.8075   -0.2936 C.3       1 <0>         0.0757
      5 C5          1.0529   -2.3315   -0.7900 C.3       1 <0>         0.0606
      6 C6          1.2537   -1.0141   -0.0051 C.3       1 <0>         0.1811
      7 N1          1.7340   -1.2977    1.3495 N.pl3     1 <0>        -0.4478
      8 C7          2.8822   -1.9554    1.6771 C.2       1 <0>         0.2774
      9 N2          2.9982   -2.0301    2.9711 N.2       1 <0>        -0.4761
     10 C8          1.9348   -1.4269    3.5547 C.ar      1 <0>        -0.1120
     11 C9          1.1136   -0.9449    2.5213 C.ar      1 <0>         0.3161
     12 N3         -0.0059   -0.3003    2.8332 N.ar      1 <0>        -0.5333
     13 C10        -0.3428   -0.1113    4.0917 C.ar      1 <0>         0.3471
     14 N4          0.3978   -0.5426    5.0962 N.ar      1 <0>        -0.5964
     15 C11         1.5299   -1.2052    4.8818 C.ar      1 <0>         0.5019
     16 N5          2.3001   -1.6524    5.9411 N.pl3     1 <0>        -0.8231
     17 O1          2.0653   -3.2835   -0.4574 O.3       1 <0>        -0.5509
     18 O2         -0.2172   -3.4786    0.9624 O.3       1 <0>        -0.5393
     19 C12        -2.0424   -1.5853    1.0952 C.3       1 <0>         0.1009
     20 O3         -2.8257   -0.3944    1.1952 O.3       1 <0>        -0.5688
     21 H1          0.4099    1.5991    0.3159 H         1 <0>         0.0954
     22 H2         -1.4205    1.2263    0.2167 H         1 <0>         0.1244
     23 H3         -1.7370   -1.3188   -1.0274 H         1 <0>         0.0942
     24 H4         -0.8051   -3.4567   -1.0329 H         1 <0>         0.0714
     25 H5          1.0364   -2.1404   -1.8630 H         1 <0>         0.0941
     26 H6          1.9520   -0.3611   -0.5287 H         1 <0>         0.1012
     27 H7          3.5909   -2.3558    0.9673 H         1 <0>         0.2178
     28 H8         -1.2592    0.4165    4.3108 H         1 <0>         0.1965
     29 H9          3.1301   -2.1250    5.7718 H         1 <0>         0.4170
     30 H10         2.0099   -1.4932    6.8529 H         1 <0>         0.4079
     31 H11         1.9352   -4.1530   -0.8601 H         1 <0>         0.3851
     32 H12         0.2780   -4.3081    0.9199 H         1 <0>         0.3764
     33 H13        -2.7025   -2.4475    1.0007 H         1 <0>         0.0317
     34 H14        -1.4296   -1.6934    1.9902 H         1 <0>         0.0720
     35 H15        -3.4245   -0.3799    1.9544 H         1 <0>         0.3767
@<TRIPOS>BOND
     1    1    2 2
     2    1   21 1
     3    1   22 1
     4    2    6 1
     5    2    3 1
     6    3    4 1
     7    3   19 1
     8    3   23 1
     9    4    5 1
    10    4   18 1
    11    4   24 1
    12    5    6 1
    13    5   17 1
    14    5   25 1
    15    6    7 1
    16    6   26 1
    17    7   11 1
    18    7    8 1
    19    8    9 2
    20    8   27 1
    21    9   10 1
    22   10   15 ar
    23   10   11 ar
    24   11   12 ar
    25   12   13 ar
    26   13   14 ar
    27   13   28 1
    28   14   15 ar
    29   15   16 1
    30   16   29 1
    31   16   30 1
    32   17   31 1
    33   18   32 1
    34   19   20 1
    35   19   33 1
    36   19   34 1
    37   20   35 1
@<TRIPOS>MOLECULE
CHEMBL53931__15
   35    37     0     0     0
SMALL
USER_CHARGES

@<TRIPOS>ATOM
      1 C1         -0.0157    1.3058    0.0092 C.2       1 <0>        -0.1214
      2 C2          0.0021   -0.0041    0.0020 C.2       1 <0>        -0.1520
      3 C3         -1.2055   -0.9180    0.0020 C.3       1 <0>        -0.0480
      4 C4         -0.6712   -2.3652   -0.0178 C.3       1 <0>         0.0798
      5 C5          0.7504   -2.2247   -0.6191 C.3       1 <0>         0.0633
      6 C6          1.2372   -0.8871   -0.0145 C.3       1 <0>         0.1829
      7 N1          2.2793   -0.2937   -0.8560 N.pl3     1 <0>        -0.4605
      8 C7          2.1666    0.0213   -2.1776 C.2       1 <0>         0.2497
      9 N2          3.2831    0.5316   -2.6097 N.2       1 <0>        -0.4593
     10 C8          4.1806    0.5765   -1.5960 C.ar      1 <0>        -0.1133
     11 C9          3.5455    0.0525   -0.4572 C.ar      1 <0>         0.3087
     12 N3          4.2189   -0.0096    0.6868 N.ar      1 <0>        -0.5576
     13 C10         5.4629    0.4155    0.7570 C.ar      1 <0>         0.3649
     14 N4          6.0999    0.9183   -0.2846 N.ar      1 <0>        -0.5934
     15 C11         5.5107    1.0123   -1.4723 C.ar      1 <0>         0.5089
     16 N5          6.1861    1.5418   -2.5579 N.pl3     1 <0>        -0.8180
     17 O1          1.5866   -3.3069   -0.2047 O.3       1 <0>        -0.5451
     18 O2         -0.6055   -2.8944    1.3079 O.3       1 <0>        -0.5448
     19 C12        -2.0376   -0.6851    1.2647 C.3       1 <0>         0.0961
     20 O3         -2.6009    0.6277    1.2285 O.3       1 <0>        -0.5765
     21 H1          0.9122    1.8585    0.0033 H         1 <0>         0.0984
     22 H2         -0.9582    1.8330    0.0166 H         1 <0>         0.1268
     23 H3         -1.8128   -0.7329   -0.8841 H         1 <0>         0.1050
     24 H4         -1.2948   -2.9950   -0.6522 H         1 <0>         0.0808
     25 H5          0.7069   -2.1614   -1.7064 H         1 <0>         0.0828
     26 H6          1.6076   -1.0427    0.9988 H         1 <0>         0.1306
     27 H7          1.2816   -0.1306   -2.7775 H         1 <0>         0.2168
     28 H8          5.9817    0.3508    1.7020 H         1 <0>         0.2047
     29 H9          5.7416    1.6155   -3.4168 H         1 <0>         0.4186
     30 H10         7.1042    1.8392   -2.4598 H         1 <0>         0.4105
     31 H11         1.2744   -4.1766   -0.4895 H         1 <0>         0.3832
     32 H12        -0.2759   -3.8023    1.3531 H         1 <0>         0.3845
     33 H13        -2.8384   -1.4229    1.3133 H         1 <0>         0.0513
     34 H14        -1.3998   -0.7827    2.1432 H         1 <0>         0.0586
     35 H15        -3.1424    0.8447    1.9997 H         1 <0>         0.3833
@<TRIPOS>BOND
     1    1    2 2
     2    1   21 1
     3    1   22 1
     4    2    6 1
     5    2    3 1
     6    3    4 1
     7    3   19 1
     8    3   23 1
     9    4    5 1
    10    4   18 1
    11    4   24 1
    12    5    6 1
    13    5   17 1
    14    5   25 1
    15    6    7 1
    16    6   26 1
    17    7   11 1
    18    7    8 1
    19    8    9 2
    20    8   27 1
    21    9   10 1
    22   10   15 ar
    23   10   11 ar
    24   11   12 ar
    25   12   13 ar
    26   13   14 ar
    27   13   28 1
    28   14   15 ar
    29   15   16 1
    30   16   29 1
    31   16   30 1
    32   17   31 1
    33   18   32 1
    34   19   20 1
    35   19   33 1
    36   19   34 1
    37   20   35 1
@<TRIPOS>MOLECULE
CHEMBL416457
   30    31     0     0     0
SMALL
USER_CHARGES

@<TRIPOS>ATOM
      1 C1         -0.4239    1.2437    0.1295 C.ar      1 <0>         0.3660
      2 N1          0.5776    2.0994    0.0343 N.ar      1 <0>        -0.5932
      3 C2          1.8301    1.6795   -0.1097 C.ar      1 <0>         0.5098
      4 C3          2.0710    0.2957   -0.1592 C.ar      1 <0>        -0.1125
      5 C4          0.9720   -0.5730   -0.0535 C.ar      1 <0>         0.3026
      6 N2         -0.2459   -0.0597    0.0883 N.ar      1 <0>        -0.5595
      7 N3          1.4850   -1.8431   -0.1304 N.pl3     1 <0>        -0.4676
      8 C5          2.8356   -1.7301   -0.2760 C.2       1 <0>         0.2507
      9 N4          3.1774   -0.4745   -0.2926 N.2       1 <0>        -0.4607
     10 C6          0.7214   -3.0918   -0.0672 C.3       1 <0>         0.1290
     11 C7          0.2007   -3.4322   -1.4398 C.2       1 <0>        -0.1477
     12 C8          0.4302   -4.6157   -1.9524 C.2       1 <0>        -0.1731
     13 C9          1.0516   -5.6962   -1.1054 C.3       1 <0>         0.1266
     14 H1          1.1298   -5.3500   -0.0748 H         1 <0>         0.1131
     15 C10         2.4470   -6.0243   -1.6404 C.3       1 <0>         0.0454
     16 O1          3.0819   -6.9635   -0.7705 O.3       1 <0>        -0.5637
     17 O2          0.2352   -6.8680   -1.1537 O.3       1 <0>        -0.5425
     18 N5          2.8730    2.5837   -0.2091 N.pl3     1 <0>        -0.8171
     19 H2         -1.4261    1.6279    0.2502 H         1 <0>         0.2055
     20 H3          3.5210   -2.5601   -0.3645 H         1 <0>         0.2206
     21 H4          1.3676   -3.8954    0.2859 H         1 <0>         0.1097
     22 H5         -0.1164   -2.9709    0.6195 H         1 <0>         0.1094
     23 H6         -0.3617   -2.7005   -2.0008 H         1 <0>         0.1251
     24 H7          0.1739   -4.8171   -2.9821 H         1 <0>         0.1271
     25 H8          2.3617   -6.4537   -2.6386 H         1 <0>         0.0526
     26 H9          3.0420   -5.1123   -1.6869 H         1 <0>         0.0548
     27 H10         3.9724   -7.2177   -1.0489 H         1 <0>         0.3826
     28 H11         0.0595   -7.1883   -2.0490 H         1 <0>         0.3767
     29 H12         2.6939    3.5364   -0.1739 H         1 <0>         0.4111
     30 H13         3.7831    2.2648   -0.3140 H         1 <0>         0.4190
@<TRIPOS>BOND
     1    1    6 ar
     2    1    2 ar
     3    1   19 1
     4    2    3 ar
     5    3    4 ar
     6    3   18 1
     7    4    9 1
     8    4    5 ar
     9    5    6 ar
    10    5    7 1
    11    7    8 1
    12    7   10 1
    13    8    9 2
    14    8   20 1
    15   10   11 1
    16   10   21 1
    17   10   22 1
    18   11   12 2
    19   11   23 1
    20   12   13 1
    21   12   24 1
    22   13   14 1
    23   13   15 1
    24   13   17 1
    25   15   16 1
    26   15   25 1
    27   15   26 1
    28   16   27 1
    29   17   28 1
    30   18   29 1
    31   18   30 1
@<TRIPOS>MOLECULE
CHEMBL171369
   28    30     0     0     0
SMALL
USER_CHARGES

@<TRIPOS>ATOM
      1 C1         -0.0158    1.3119    0.0093 C.ar      1 <0>         0.3507
      2 N1          1.0888    2.0360    0.0026 N.ar      1 <0>        -0.5971
      3 C2          2.2875    1.4625   -0.0119 C.ar      1 <0>         0.5030
      4 C3          2.3582    0.0588   -0.0202 C.ar      1 <0>        -0.1011
      5 C4          1.1547   -0.6659   -0.0126 C.ar      1 <0>         0.3019
      6 N2          0.0021   -0.0041    0.0020 N.ar      1 <0>        -0.5532
      7 N3          1.5110   -1.9908   -0.0227 N.pl3     1 <0>        -0.4472
      8 C5          2.8729   -2.0476   -0.0358 C.2       1 <0>         0.2949
      9 N4          3.3680   -0.8441   -0.0343 N.2       1 <0>        -0.4808
     10 C6          0.5956   -3.1347   -0.0195 C.3       1 <0>         0.3128
     11 H1         -0.2855   -2.9205    0.5853 H         1 <0>         0.1198
     12 C7          0.1888   -3.5174   -1.4676 C.3       1 <0>         0.0352
     13 H2         -0.6919   -2.9609   -1.7883 H         1 <0>         0.0601
     14 C8         -0.1345   -5.0230   -1.2949 C.3       1 <0>         0.1512
     15 H3         -1.2097   -5.1742   -1.1991 H         1 <0>         0.0051
     16 C9          0.5728   -5.4067   -0.0090 C.2       1 <0>         0.0127
     17 C10         0.5265   -6.5901    0.5693 C.2       1 <0>        -0.0530
     18 F1         -0.1980   -7.5858    0.0135 F         1 <0>        -0.1403
     19 O1          1.2641   -4.3233    0.4536 O.3       1 <0>        -0.3131
     20 O2          0.3796   -5.7750   -2.3959 O.3       1 <0>        -0.8519
     21 O3          1.2750   -3.3240   -2.3758 O.3       1 <0>        -0.5448
     22 N5          3.4393    2.2295   -0.0193 N.pl3     1 <0>        -0.8231
     23 H4         -0.9693    1.8187    0.0257 H         1 <0>         0.2014
     24 H5          3.4551   -2.9572   -0.0459 H         1 <0>         0.2196
     25 H6          1.0678   -6.7639    1.4876 H         1 <0>         0.1299
     26 H7          1.0664   -3.5505   -3.2925 H         1 <0>         0.3838
     27 H8          3.3774    3.1975   -0.0138 H         1 <0>         0.4064
     28 H9          4.3085    1.7992   -0.0299 H         1 <0>         0.4172
@<TRIPOS>BOND
     1    1    6 ar
     2    1    2 ar
     3    1   23 1
     4    2    3 ar
     5    3    4 ar
     6    3   22 1
     7    4    9 1
     8    4    5 ar
     9    5    6 ar
    10    5    7 1
    11    7    8 1
    12    7   10 1
    13    8    9 2
    14    8   24 1
    15   10   11 1
    16   10   19 1
    17   10   12 1
    18   12   13 1
    19   12   14 1
    20   12   21 1
    21   14   15 1
    22   14   16 1
    23   14   20 1
    24   16   17 2
    25   16   19 1
    26   17   18 1
    27   17   25 1
    28   21   26 1
    29   22   27 1
    30   22   28 1
@<TRIPOS>MOLECULE
CHEMBL171369__1
   29    31     0     0     0
SMALL
USER_CHARGES

@<TRIPOS>ATOM
      1 C1         -0.0158    1.3119    0.0093 C.ar      1 <0>         0.3662
      2 N1          1.0888    2.0360    0.0026 N.ar      1 <0>        -0.5912
      3 C2          2.2875    1.4625   -0.0119 C.ar      1 <0>         0.5100
      4 C3          2.3582    0.0588   -0.0202 C.ar      1 <0>        -0.1025
      5 C4          1.1547   -0.6659   -0.0126 C.ar      1 <0>         0.3076
      6 N2          0.0021   -0.0041    0.0020 N.ar      1 <0>        -0.5634
      7 N3          1.5110   -1.9908   -0.0227 N.pl3     1 <0>        -0.4618
      8 C5          2.8729   -2.0476   -0.0358 C.2       1 <0>         0.2864
      9 N4          3.3680   -0.8441   -0.0343 N.2       1 <0>        -0.4641
     10 C6          0.5956   -3.1347   -0.0195 C.3       1 <0>         0.3219
     11 H1         -0.2855   -2.9205    0.5853 H         1 <0>         0.1375
     12 C7          0.1888   -3.5174   -1.4676 C.3       1 <0>         0.0775
     13 H2         -0.6919   -2.9609   -1.7883 H         1 <0>         0.1039
     14 C8         -0.1345   -5.0230   -1.2949 C.3       1 <0>         0.0826
     15 H3         -1.2097   -5.1742   -1.1991 H         1 <0>         0.0970
     16 C9          0.5728   -5.4067   -0.0090 C.2       1 <0>        -0.0281
     17 C10         0.5265   -6.5901    0.5693 C.2       1 <0>         0.0178
     18 F1         -0.1980   -7.5858    0.0135 F         1 <0>        -0.1326
     19 O1          1.2641   -4.3233    0.4536 O.3       1 <0>        -0.2904
     20 O2          0.3796   -5.7750   -2.3959 O.3       1 <0>        -0.5372
     21 O3          1.2750   -3.3240   -2.3758 O.3       1 <0>        -0.5301
     22 N5          3.4393    2.2295   -0.0193 N.pl3     1 <0>        -0.8160
     23 H4         -0.9693    1.8187    0.0257 H         1 <0>         0.2065
     24 H5          3.4551   -2.9572   -0.0459 H         1 <0>         0.2215
     25 H6          1.0678   -6.7639    1.4876 H         1 <0>         0.1641
     26 H7          0.2054   -6.7245   -2.3391 H         1 <0>         0.3910
     27 H8          1.0664   -3.5505   -3.2925 H         1 <0>         0.3950
     28 H9          3.3774    3.1975   -0.0138 H         1 <0>         0.4114
     29 H10         4.3085    1.7992   -0.0299 H         1 <0>         0.4198
@<TRIPOS>BOND
     1    1    6 ar
     2    1    2 ar
     3    1   23 1
     4    2    3 ar
     5    3    4 ar
     6    3   22 1
     7    4    9 1
     8    4    5 ar
     9    5    6 ar
    10    5    7 1
    11    7    8 1
    12    7   10 1
    13    8    9 2
    14    8   24 1
    15   10   11 1
    16   10   19 1
    17   10   12 1
    18   12   13 1
    19   12   14 1
    20   12   21 1
    21   14   15 1
    22   14   16 1
    23   14   20 1
    24   16   17 2
    25   16   19 1
    26   17   18 1
    27   17   25 1
    28   20   26 1
    29   21   27 1
    30   22   28 1
    31   22   29 1
