@<TRIPOS>MOLECULE
ZINC06680090
   32    32     0     0     0
SMALL
USER_CHARGES
2-[[5-(ethylcarbamoyl)-2-methyl-3-thienyl]sulfonylamino]acetic acid
@<TRIPOS>ATOM
      1 C1          2.1917    2.5081    0.2652 C.3       1 <0>        -0.1659
      2 C2          0.8506    3.2436    0.3037 C.3       1 <0>         0.1148
      3 N1         -0.2421    2.2718    0.2164 N.am      1 <0>        -0.7287
      4 C3         -1.5220    2.6941    0.2264 C.2       1 <0>         0.6086
      5 O1         -1.7700    3.8824    0.3129 O.2       1 <0>        -0.5202
      6 C4         -2.6152    1.7221    0.1330 C.2       1 <0>        -0.2588
      7 C5         -3.9834    1.9441    0.1262 C.2       1 <0>         0.0102
      8 C6         -4.7951    0.8416    0.0270 C.2       1 <0>        -0.7343
      9 C7         -4.2313   -0.3918   -0.0582 C.2       1 <0>        -0.0274
     10 S1         -2.5315   -0.0543   -0.0093 S.3       1 <0>         0.1766
     11 C8         -4.9172   -1.7287   -0.1733 C.3       1 <0>        -0.1063
     12 S2         -6.5476    1.0237    0.0097 S.o2      1 <0>         2.7053
     13 O2         -6.8129    2.4132    0.1440 O.2       1 <0>        -0.9573
     14 O3         -7.0244    0.2598   -1.0896 O.2       1 <0>        -0.9629
     15 N2         -7.1289    0.2963    1.3791 N.pl3     1 <0>        -1.0926
     16 C9         -6.7629    0.8189    2.6978 C.3       1 <0>         0.0743
     17 C10        -7.7051    0.2665    3.7362 C.2       1 <0>         0.4655
     18 O4         -8.5913   -0.4865    3.4084 O.co2     1 <0>        -0.6290
     19 H1          2.2515    1.8175    1.1064 H         1 <0>         0.0631
     20 H2          2.2741    1.9515   -0.6683 H         1 <0>         0.0620
     21 H3          3.0047    3.2312    0.3301 H         1 <0>         0.0762
     22 H4          0.7907    3.9342   -0.5376 H         1 <0>         0.0706
     23 H5          0.7682    3.8002    1.2372 H         1 <0>         0.0718
     24 H6         -0.0444    1.3246    0.1475 H         1 <0>         0.3992
     25 H7         -4.3929    2.9410    0.1955 H         1 <0>         0.1659
     26 H8         -5.1486   -1.9295   -1.2194 H         1 <0>         0.1097
     27 H9         -4.2592   -2.5089    0.2094 H         1 <0>         0.0932
     28 H10        -5.8399   -1.7148    0.4068 H         1 <0>         0.0974
     29 H11        -7.7118   -0.4758    1.3080 H         1 <0>         0.4239
     30 H12        -5.7426    0.5193    2.9370 H         1 <0>         0.0676
     31 H13        -6.8296    1.9068    2.6888 H         1 <0>         0.0854
     32 O5         -7.5597    0.6109    5.0254 O.co2     1 <0>        -0.7580
@<TRIPOS>BOND
     1    1    2 1
     2    1   19 1
     3    1   20 1
     4    1   21 1
     5    2    3 1
     6    2   22 1
     7    2   23 1
     8    3    4 am
     9    3   24 1
    10    4    5 2
    11    4    6 1
    12    6   10 1
    13    6    7 2
    14    7    8 1
    15    7   25 1
    16    8    9 2
    17    8   12 1
    18    9   10 1
    19    9   11 1
    20   11   26 1
    21   11   27 1
    22   11   28 1
    23   12   13 2
    24   12   14 2
    25   12   15 1
    26   15   16 1
    27   15   29 1
    28   16   17 1
    29   16   30 1
    30   16   31 1
    31   17   18 2
    32   17   32 1
@<TRIPOS>MOLECULE
ZINC37224910
   28    27     0     0     0
SMALL
USER_CHARGES

@<TRIPOS>ATOM
      1 C1         -0.0178    1.4608    0.0101 C.3       1 <0>         0.0869
      2 N1          0.0021   -0.0041    0.0020 N.am      1 <0>        -0.7342
      3 C2         -1.1558   -0.6938    0.0094 C.2       1 <0>         0.5128
      4 O1         -2.2142   -0.1017    0.0227 O.2       1 <0>        -0.5291
      5 C3         -1.1354   -2.2006    0.0011 C.3       1 <0>         0.0950
      6 N2         -2.5098   -2.7077    0.0115 N.pl3     1 <0>        -1.1139
      7 S1         -2.8107   -4.2919   -0.3654 S.o2      1 <0>         2.6094
      8 O2         -4.2231   -4.4230   -0.2798 O.2       1 <0>        -0.9524
      9 O3         -2.1367   -4.5058   -1.5979 O.2       1 <0>        -0.9574
     10 C4         -2.0136   -5.2450    0.9563 C.3       1 <0>        -0.6183
     11 C5         -2.2293   -6.7394    0.7088 C.3       1 <0>        -0.0878
     12 C6         -1.5570   -7.5432    1.8235 C.3       1 <0>        -0.1749
     13 C7         -1.7695   -9.0151    1.5797 C.2       1 <0>         0.4882
     14 O4         -2.4001   -9.3867    0.6047 O.co2     1 <0>        -0.6954
     15 O5         -1.3106   -9.8344    2.3574 O.co2     1 <0>        -0.7041
     16 H1          1.0048    1.8381    0.0023 H         1 <0>         0.0774
     17 H2         -0.5450    1.8219   -0.8730 H         1 <0>         0.0609
     18 H3         -0.5280    1.8123    0.9069 H         1 <0>         0.0609
     19 H4          0.8486   -0.4776   -0.0086 H         1 <0>         0.4061
     20 H5         -0.6252   -2.5521   -0.8957 H         1 <0>         0.1128
     21 H6         -0.6082   -2.5617    0.8841 H         1 <0>         0.0981
     22 H7         -3.2435   -2.1155    0.2391 H         1 <0>         0.4252
     23 H8         -0.9453   -5.0289    0.9665 H         1 <0>         0.1257
     24 H9         -2.4493   -4.9692    1.9166 H         1 <0>         0.1297
     25 H10        -3.2976   -6.9555    0.6985 H         1 <0>         0.0784
     26 H11        -1.7936   -7.0152   -0.2516 H         1 <0>         0.0783
     27 H12        -0.4887   -7.3271    1.8337 H         1 <0>         0.0607
     28 H13        -1.9927   -7.2674    2.7838 H         1 <0>         0.0610
@<TRIPOS>BOND
     1    1    2 1
     2    1   16 1
     3    1   17 1
     4    1   18 1
     5    2    3 am
     6    2   19 1
     7    3    4 2
     8    3    5 1
     9    5    6 1
    10    5   20 1
    11    5   21 1
    12    6    7 1
    13    6   22 1
    14    7    8 2
    15    7    9 2
    16    7   10 1
    17   10   11 1
    18   10   23 1
    19   10   24 1
    20   11   12 1
    21   11   25 1
    22   11   26 1
    23   12   13 1
    24   12   27 1
    25   12   28 1
    26   13   14 2
    27   13   15 1
@<TRIPOS>MOLECULE
ZINC40573947
   36    35     0     0     0
SMALL
USER_CHARGES

@<TRIPOS>ATOM
      1 C1         -0.0178    1.4608    0.0101 C.3       1 <0>         0.0897
      2 N1          0.0021   -0.0041    0.0020 N.am      1 <0>        -0.7427
      3 C2          0.6044   -0.6754    1.0035 C.2       1 <0>         0.4849
      4 O1          1.1299   -0.0668    1.9115 O.2       1 <0>        -0.5085
      5 C3          0.6248   -2.1822    0.9953 C.3       1 <0>         0.1218
      6 N2          1.3334   -2.6675    2.1821 N.am      1 <0>        -0.6225
      7 C4          0.5951   -2.9285    3.4203 C.3       1 <0>         0.0875
      8 C5          2.6644   -2.8738    2.1349 C.2       1 <0>         0.7174
      9 O2          3.2771   -2.6572    1.1073 O.2       1 <0>        -0.5915
     10 N3          3.3163   -3.3203    3.2268 N.am      1 <0>        -0.7071
     11 C6          4.7631   -3.5446    3.1755 C.3       1 <0>         0.0984
     12 H1          5.0395   -3.9087    2.1860 H         1 <0>         0.0837
     13 C7          5.1560   -4.5823    4.2289 C.3       1 <0>        -0.0923
     14 C8          4.5246   -5.9308    3.8768 C.3       1 <0>        -0.0724
     15 S1          4.9904   -7.1611    5.1257 S.3       1 <0>        -0.2755
     16 C9          4.1729   -8.6820    4.5697 C.3       1 <0>        -0.1205
     17 C10         5.4823   -2.2498    3.4533 C.2       1 <0>         0.4901
     18 O3          4.8598   -1.2799    3.8512 O.co2     1 <0>        -0.6785
     19 O4          6.6867   -2.1720    3.2800 O.co2     1 <0>        -0.6987
     20 H2          1.0048    1.8381    0.0023 H         1 <0>         0.0586
     21 H3         -0.5450    1.8219   -0.8730 H         1 <0>         0.0711
     22 H4         -0.5280    1.8123    0.9069 H         1 <0>         0.0560
     23 H5         -0.4183   -0.4908   -0.7241 H         1 <0>         0.3983
     24 H6         -0.3978   -2.5595    1.0030 H         1 <0>         0.1015
     25 H7          1.1350   -2.5337    0.0985 H         1 <0>         0.1118
     26 H8          0.2511   -3.9628    3.4270 H         1 <0>         0.0512
     27 H9          1.2485   -2.7574    4.2758 H         1 <0>         0.0711
     28 H10        -0.2635   -2.2596    3.4793 H         1 <0>         0.0671
     29 H11         2.8274   -3.4931    4.0466 H         1 <0>         0.3871
     30 H12         6.2410   -4.6841    4.2517 H         1 <0>         0.0917
     31 H13         4.8007   -4.2593    5.2074 H         1 <0>         0.0712
     32 H14         3.4396   -5.8290    3.8539 H         1 <0>         0.0773
     33 H15         4.8799   -6.2538    2.8983 H         1 <0>         0.0797
     34 H16         4.3966   -9.4902    5.2661 H         1 <0>         0.0972
     35 H17         3.0953   -8.5225    4.5323 H         1 <0>         0.0723
     36 H18         4.5356   -8.9473    3.5766 H         1 <0>         0.0732
@<TRIPOS>BOND
     1    1    2 1
     2    1   20 1
     3    1   21 1
     4    1   22 1
     5    2    3 am
     6    2   23 1
     7    3    4 2
     8    3    5 1
     9    5    6 1
    10    5   24 1
    11    5   25 1
    12    6    7 1
    13    6    8 am
    14    7   26 1
    15    7   27 1
    16    7   28 1
    17    8    9 2
    18    8   10 am
    19   10   11 1
    20   10   29 1
    21   11   12 1
    22   11   13 1
    23   11   17 1
    24   13   14 1
    25   13   30 1
    26   13   31 1
    27   14   15 1
    28   14   32 1
    29   14   33 1
    30   15   16 1
    31   16   34 1
    32   16   35 1
    33   16   36 1
    34   17   18 2
    35   17   19 1
@<TRIPOS>MOLECULE
ZINC43437826
   41    41     0     0     0
SMALL
USER_CHARGES

@<TRIPOS>ATOM
      1 C1         -0.0187    1.5258    0.0104 C.3       1 <0>        -0.1350
      2 C2          0.0021   -0.0041    0.0020 C.3       1 <0>        -0.0974
      3 C3          0.7421   -0.5109    1.2415 C.3       1 <0>        -0.1559
      4 C4         -1.4333   -0.5336    0.0129 C.3       1 <0>         0.1832
      5 H1         -1.9435   -0.1821    0.9097 H         1 <0>         0.1273
      6 C5         -1.4129   -2.0405    0.0046 C.2       1 <0>         0.4619
      7 O1         -1.9364   -2.6468   -0.8999 O.2       1 <0>        -0.5023
      8 O2         -0.8130   -2.7091    1.0021 O.3       1 <0>        -0.3417
      9 C6         -0.8317   -4.1361    0.9298 C.3       1 <0>         0.0287
     10 N1         -2.1419   -0.0483   -1.1740 N.am      1 <0>        -0.7443
     11 C7         -2.7269    1.1657   -1.1601 C.2       1 <0>         0.7209
     12 O3         -2.6666    1.8582   -0.1625 O.2       1 <0>        -0.5593
     13 N2         -3.3787    1.6122   -2.2520 N.am      1 <0>        -0.7158
     14 C8         -4.0147    2.9319   -2.2369 C.3       1 <0>         0.1497
     15 C9         -2.9563    4.0050   -1.9737 C.3       1 <0>        -0.1399
     16 C10        -4.6801    3.1929   -3.5896 C.3       1 <0>        -0.1408
     17 C11        -4.1429    4.3538   -4.4290 C.3       1 <0>        -0.1962
     18 C12        -5.5021    4.4749   -3.7370 C.3       1 <0>        -0.1531
     19 C13        -5.0558    2.9754   -1.1482 C.2       1 <0>         0.5061
     20 O4         -5.2487    1.9949   -0.4496 O.co2     1 <0>        -0.6753
     21 O5         -5.7051    3.9911   -0.9659 O.co2     1 <0>        -0.6963
     22 H2          1.0039    1.9031    0.0027 H         1 <0>         0.0453
     23 H3         -0.5459    1.8868   -0.8726 H         1 <0>         0.0611
     24 H4         -0.5289    1.8773    0.9072 H         1 <0>         0.0696
     25 H5          0.5123   -0.3556   -0.8948 H         1 <0>         0.0692
     26 H6          0.2319   -0.1594    2.1383 H         1 <0>         0.0611
     27 H7          0.7568   -1.6008    1.2356 H         1 <0>         0.0730
     28 H8          1.7647   -0.1336    1.2338 H         1 <0>         0.0565
     29 H9         -1.8639   -4.4860    0.9219 H         1 <0>         0.0603
     30 H10        -0.3312   -4.4603    0.0174 H         1 <0>         0.0590
     31 H11        -0.3141   -4.5505    1.7950 H         1 <0>         0.1014
     32 H12        -2.1900   -0.6008   -1.9698 H         1 <0>         0.3960
     33 H13        -3.4268    1.0597   -3.0478 H         1 <0>         0.3807
     34 H14        -2.2033    3.9736   -2.7611 H         1 <0>         0.0380
     35 H15        -3.4295    4.9869   -1.9624 H         1 <0>         0.0613
     36 H16        -2.4823    3.8191   -1.0099 H         1 <0>         0.0712
     37 H17        -5.0296    2.3072   -4.1203 H         1 <0>         0.0934
     38 H18        -3.3154    4.9317   -4.0174 H         1 <0>         0.0966
     39 H19        -4.1387    4.2321   -5.5121 H         1 <0>         0.0812
     40 H20        -6.3921    4.4328   -4.3649 H         1 <0>         0.0815
     41 H21        -5.5688    5.1324   -2.8702 H         1 <0>         0.1192
@<TRIPOS>BOND
     1    1    2 1
     2    1   22 1
     3    1   23 1
     4    1   24 1
     5    2    3 1
     6    2    4 1
     7    2   25 1
     8    3   26 1
     9    3   27 1
    10    3   28 1
    11    4    5 1
    12    4    6 1
    13    4   10 1
    14    6    7 2
    15    6    8 1
    16    8    9 1
    17    9   29 1
    18    9   30 1
    19    9   31 1
    20   10   11 am
    21   10   32 1
    22   11   12 2
    23   11   13 am
    24   13   14 1
    25   13   33 1
    26   14   15 1
    27   14   16 1
    28   14   19 1
    29   15   34 1
    30   15   35 1
    31   15   36 1
    32   16   18 1
    33   16   17 1
    34   16   37 1
    35   17   18 1
    36   17   38 1
    37   17   39 1
    38   18   40 1
    39   18   41 1
    40   19   20 2
    41   19   21 1
@<TRIPOS>MOLECULE
ZINC49502909
   47    47     0     0     0
SMALL
USER_CHARGES

@<TRIPOS>ATOM
      1 C1          0.2168    1.5926   -0.1558 C.3       1 <0>        -0.1644
      2 C2         -0.0415    0.0894   -0.0349 C.3       1 <0>         0.1701
      3 H1          0.3427   -0.4176   -0.9201 H         1 <0>         0.0847
      4 C3          0.6657   -0.4511    1.2096 C.3       1 <0>         0.0473
      5 N1          0.3371   -1.8726    1.3810 N.3       1 <0>        -0.5295
      6 C4          0.5873   -2.3083    2.7626 C.3       1 <0>         0.0183
      7 C5          0.1764   -3.7755    2.9116 C.3       1 <0>         0.0639
      8 O1          0.8913   -4.5649    1.9570 O.3       1 <0>        -0.3883
      9 C6          0.6701   -4.1683    0.6009 C.3       1 <0>         0.0644
     10 C7          1.0861   -2.7051    0.4284 C.3       1 <0>         0.0180
     11 N2         -1.4821   -0.1510    0.0790 N.am      1 <0>        -0.7334
     12 C8         -2.2295   -0.3048   -1.0320 C.2       1 <0>         0.7064
     13 O2         -1.7081   -0.2441   -2.1287 O.2       1 <0>        -0.6002
     14 N3         -3.5549   -0.5260   -0.9272 N.am      1 <0>        -0.7104
     15 C9         -4.3673   -0.6932   -2.1348 C.3       1 <0>         0.1057
     16 H2         -3.7844   -1.2116   -2.8960 H         1 <0>         0.0756
     17 C10        -4.7805    0.6601   -2.6536 C.2       1 <0>         0.4970
     18 O3         -4.9604    0.8261   -3.8480 O.co2     1 <0>        -0.6969
     19 O4         -4.9349    1.5888   -1.8789 O.co2     1 <0>        -0.6925
     20 C11        -5.6146   -1.5139   -1.8007 C.3       1 <0>        -0.0636
     21 C12        -6.4329   -0.7861   -0.7322 C.3       1 <0>        -0.1345
     22 C13        -6.4631   -1.6885   -3.0618 C.3       1 <0>        -0.1332
     23 C14        -5.1951   -2.8877   -1.2740 C.3       1 <0>        -0.1334
     24 H3          1.2887    1.7714   -0.2405 H         1 <0>         0.0578
     25 H4         -0.2870    1.9776   -1.0424 H         1 <0>         0.0687
     26 H5         -0.1673    2.0996    0.7294 H         1 <0>         0.0547
     27 H6          1.7436   -0.3389    1.0925 H         1 <0>         0.0499
     28 H7          0.3355    0.1064    2.0860 H         1 <0>         0.0788
     29 H8          1.6478   -2.2023    2.9912 H         1 <0>         0.0399
     30 H9          0.0033   -1.6952    3.4490 H         1 <0>         0.0853
     31 H10         0.4131   -4.1194    3.9185 H         1 <0>         0.0950
     32 H11        -0.8948   -3.8732    2.7354 H         1 <0>         0.0602
     33 H12         1.2639   -4.7962   -0.0634 H         1 <0>         0.0968
     34 H13        -0.3867   -4.2774    0.3575 H         1 <0>         0.0615
     35 H14         0.8662   -2.3816   -0.5890 H         1 <0>         0.0906
     36 H15         2.1545   -2.6054    0.6198 H         1 <0>         0.0408
     37 H16        -1.8980   -0.1995    0.9539 H         1 <0>         0.3905
     38 H17        -3.9708   -0.5744   -0.0522 H         1 <0>         0.3852
     39 H18        -6.7317    0.1927   -1.1074 H         1 <0>         0.0719
     40 H19        -7.3215   -1.3708   -0.4942 H         1 <0>         0.0426
     41 H20        -5.8284   -0.6617    0.1663 H         1 <0>         0.0449
     42 H21        -5.8801   -2.2069   -3.8230 H         1 <0>         0.0510
     43 H22        -7.3517   -2.2732   -2.8238 H         1 <0>         0.0442
     44 H23        -6.7619   -0.7097   -3.4371 H         1 <0>         0.0714
     45 H24        -4.5907   -2.7633   -0.3755 H         1 <0>         0.0496
     46 H25        -6.0837   -3.4724   -1.0360 H         1 <0>         0.0477
     47 H26        -4.6122   -3.4062   -2.0352 H         1 <0>         0.0497
@<TRIPOS>BOND
     1    1    2 1
     2    1   24 1
     3    1   25 1
     4    1   26 1
     5    2    3 1
     6    2    4 1
     7    2   11 1
     8    4    5 1
     9    4   27 1
    10    4   28 1
    11    5   10 1
    12    5    6 1
    13    6    7 1
    14    6   29 1
    15    6   30 1
    16    7    8 1
    17    7   31 1
    18    7   32 1
    19    8    9 1
    20    9   10 1
    21    9   33 1
    22    9   34 1
    23   10   35 1
    24   10   36 1
    25   11   12 am
    26   11   37 1
    27   12   13 2
    28   12   14 am
    29   14   15 1
    30   14   38 1
    31   15   16 1
    32   15   17 1
    33   15   20 1
    34   17   18 2
    35   17   19 1
    36   20   21 1
    37   20   22 1
    38   20   23 1
    39   21   39 1
    40   21   40 1
    41   21   41 1
    42   22   42 1
    43   22   43 1
    44   22   44 1
    45   23   45 1
    46   23   46 1
    47   23   47 1
@<TRIPOS>MOLECULE
ZINC19978905
   35    35     0     0     0
SMALL
USER_CHARGES
(2S)-2-[[(3R)-1,1-dioxothiolan-3-yl]carbamoylamino]-3-methyl-butanoic acid
@<TRIPOS>ATOM
      1 C1         -5.1254    2.2721    7.6027 C.3       1 <0>        -0.1576
      2 C2         -4.7554    2.8990    6.2570 C.3       1 <0>        -0.0805
      3 C3         -3.4818    3.7319    6.4154 C.3       1 <0>        -0.1415
      4 C4         -4.5167    1.7928    5.2274 C.3       1 <0>         0.1268
      5 H1         -3.6824    1.1436    5.5313 H         1 <0>         0.0850
      6 C5         -5.7712    0.9725    5.0714 C.2       1 <0>         0.4578
      7 O1         -6.3137    0.8970    3.9944 O.co2     1 <0>        -0.6307
      8 O2         -6.2859    0.3256    6.1289 O.co2     1 <0>        -0.7584
      9 N1         -4.1624    2.3931    3.9389 N.am      1 <0>        -0.7225
     10 C6         -3.4378    1.6914    3.0450 C.2       1 <0>         0.7124
     11 O3         -3.0781    0.5601    3.3080 O.2       1 <0>        -0.5963
     12 N2         -3.1118    2.2437    1.8596 N.am      1 <0>        -0.7550
     13 C7         -2.3242    1.4810    0.8880 C.3       1 <0>         0.1647
     14 H2         -2.6325    0.4291    0.9794 H         1 <0>         0.1100
     15 C8         -0.8280    1.6307    1.2154 C.3       1 <0>        -0.1483
     16 C9         -0.0127    1.0858    0.0080 C.3       1 <0>        -0.5761
     17 S1         -1.0056    1.7465   -1.3965 S.o2      1 <0>         2.3907
     18 O4         -0.4740    3.0052   -1.7866 O.2       1 <0>        -0.9380
     19 O5         -1.1672    0.7238   -2.3697 O.2       1 <0>        -0.9384
     20 C10        -2.6090    2.0146   -0.5366 C.3       1 <0>        -0.5941
     21 H3         -6.0411    1.6733    7.4888 H         1 <0>         0.1099
     22 H4         -5.2971    3.0675    8.3429 H         1 <0>         0.0340
     23 H5         -4.3040    1.6248    7.9439 H         1 <0>         0.0442
     24 H6         -5.5768    3.5463    5.9158 H         1 <0>         0.0643
     25 H7         -3.2158    4.1826    5.4479 H         1 <0>         0.0482
     26 H8         -2.6605    3.0846    6.7566 H         1 <0>         0.0503
     27 H9         -3.6536    4.5273    7.1556 H         1 <0>         0.0487
     28 H10        -4.4878    3.4166    3.7009 H         1 <0>         0.4016
     29 H11        -3.4371    3.2672    1.6217 H         1 <0>         0.4114
     30 H12        -0.5938    2.6923    1.3829 H         1 <0>         0.0886
     31 H13        -0.5919    1.0556    2.1228 H         1 <0>         0.1063
     32 H14         1.0128    1.4815    0.0496 H         1 <0>         0.1429
     33 H15         0.0163   -0.0130    0.0510 H         1 <0>         0.1433
     34 H16        -3.4333    1.4407   -0.9851 H         1 <0>         0.1501
     35 H17        -2.8895    3.0768   -0.4810 H         1 <0>         0.1461
@<TRIPOS>BOND
     1    1    2 1
     2    1   21 1
     3    1   22 1
     4    1   23 1
     5    2    3 1
     6    2    4 1
     7    2   24 1
     8    3   25 1
     9    3   26 1
    10    3   27 1
    11    4    5 1
    12    4    6 1
    13    4    9 1
    14    6    7 2
    15    6    8 1
    16    9   10 am
    17    9   28 1
    18   10   11 2
    19   10   12 am
    20   12   13 1
    21   12   29 1
    22   13   14 1
    23   13   20 1
    24   13   15 1
    25   15   16 1
    26   15   30 1
    27   15   31 1
    28   16   17 1
    29   16   32 1
    30   16   33 1
    31   17   18 2
    32   17   19 2
    33   17   20 1
    34   20   34 1
    35   20   35 1
@<TRIPOS>MOLECULE
ZINC37457107
   41    42     0     0     0
SMALL
USER_CHARGES

@<TRIPOS>ATOM
      1 C1         -0.0187    1.5258    0.0104 C.3       1 <0>        -0.1525
      2 C2          0.0021   -0.0041    0.0020 C.3       1 <0>        -0.1178
      3 C3          0.7421   -0.5109    1.2415 C.3       1 <0>        -0.0866
      4 C4          2.2100   -0.0858    1.1685 C.3       1 <0>        -0.1130
      5 C5          2.9500   -0.5926    2.4081 C.3       1 <0>        -0.1057
      6 C6          2.8633   -2.1191    2.4651 C.3       1 <0>         0.1094
      7 C7          1.3954   -2.5442    2.5382 C.3       1 <0>        -0.1128
      8 C8          0.6554   -2.0374    1.2986 C.3       1 <0>        -0.1083
      9 C9          3.5922   -2.6183    3.6860 C.2       1 <0>         0.5015
     10 O1          3.2371   -2.2614    4.7964 O.co2     1 <0>        -0.6968
     11 O2          4.5370   -3.3791    3.5634 O.co2     1 <0>        -0.6759
     12 N1          3.4774   -2.6884    1.2630 N.am      1 <0>        -0.6757
     13 C10         3.5168   -4.0250    1.0949 C.2       1 <0>         0.5752
     14 O3          3.0424   -4.7588    1.9414 O.2       1 <0>        -0.5008
     15 C11         4.1318   -4.5952   -0.1092 C.2       1 <0>         0.1087
     16 N2          4.6396   -3.8050   -1.0035 N.2       1 <0>        -0.2249
     17 N3          5.2323   -4.3124   -2.1642 N.am      1 <0>        -0.5618
     18 C12         4.9631   -5.5673   -2.5748 C.2       1 <0>         0.4984
     19 O4          5.4762   -6.0004   -3.5844 O.2       1 <0>        -0.5304
     20 C13         4.0218   -6.4309   -1.7740 C.3       1 <0>        -0.1420
     21 C14         4.1702   -6.0897   -0.2866 C.3       1 <0>        -0.1100
     22 H1          1.0039    1.9031    0.0027 H         1 <0>         0.0564
     23 H2         -0.5459    1.8868   -0.8726 H         1 <0>         0.0471
     24 H3         -0.5289    1.8773    0.9072 H         1 <0>         0.0521
     25 H4         -1.0205   -0.3814    0.0098 H         1 <0>         0.0570
     26 H5          0.5123   -0.3556   -0.8948 H         1 <0>         0.0577
     27 H6          0.2852   -0.0874    2.1360 H         1 <0>         0.0693
     28 H7          2.6669   -0.5093    0.2741 H         1 <0>         0.0566
     29 H8          2.2717    1.0017    1.1279 H         1 <0>         0.0603
     30 H9          3.9958   -0.2898    2.3560 H         1 <0>         0.0596
     31 H10         2.4931   -0.1691    3.3025 H         1 <0>         0.0815
     32 H11         1.3337   -3.6317    2.5788 H         1 <0>         0.0767
     33 H12         0.9385   -2.1207    3.4326 H         1 <0>         0.0709
     34 H13        -0.3904   -2.3402    1.3506 H         1 <0>         0.0532
     35 H14         1.1123   -2.4609    0.4042 H         1 <0>         0.0546
     36 H15         3.8556   -2.1033    0.5881 H         1 <0>         0.3937
     37 H16         5.8405   -3.7575   -2.6770 H         1 <0>         0.4304
     38 H17         2.9963   -6.2448   -2.0930 H         1 <0>         0.1071
     39 H18         4.2681   -7.4810   -1.9315 H         1 <0>         0.1168
     40 H19         5.1199   -6.4749    0.0846 H         1 <0>         0.1026
     41 H20         3.3517   -6.5427    0.2727 H         1 <0>         0.1182
@<TRIPOS>BOND
     1    1    2 1
     2    1   22 1
     3    1   23 1
     4    1   24 1
     5    2    3 1
     6    2   25 1
     7    2   26 1
     8    3    8 1
     9    3    4 1
    10    3   27 1
    11    4    5 1
    12    4   28 1
    13    4   29 1
    14    5    6 1
    15    5   30 1
    16    5   31 1
    17    6    7 1
    18    6    9 1
    19    6   12 1
    20    7    8 1
    21    7   32 1
    22    7   33 1
    23    8   34 1
    24    8   35 1
    25    9   10 2
    26    9   11 1
    27   12   13 am
    28   12   36 1
    29   13   14 2
    30   13   15 1
    31   15   21 1
    32   15   16 2
    33   16   17 1
    34   17   18 am
    35   17   37 1
    36   18   19 2
    37   18   20 1
    38   20   21 1
    39   20   38 1
    40   20   39 1
    41   21   40 1
    42   21   41 1
@<TRIPOS>MOLECULE
ZINC40589385
   36    36     0     0     0
SMALL
USER_CHARGES

@<TRIPOS>ATOM
      1 C1         -0.0187    1.5258    0.0104 C.3       1 <0>        -0.1431
      2 C2          0.0021   -0.0041    0.0020 C.3       1 <0>        -0.0865
      3 C3          0.7421   -0.5109    1.2415 C.3       1 <0>        -0.1404
      4 C4         -1.4333   -0.5336    0.0129 C.3       1 <0>         0.0975
      5 H1         -1.9435   -0.1821    0.9097 H         1 <0>         0.0796
      6 C5         -2.1622   -0.0344   -1.2080 C.2       1 <0>         0.4909
      7 O1         -2.4620   -0.8108   -2.0990 O.co2     1 <0>        -0.6905
      8 O2         -2.4521    1.1459   -1.3048 O.co2     1 <0>        -0.6936
      9 N1         -1.4134   -1.9985    0.0048 N.am      1 <0>        -0.7099
     10 C6         -2.4573   -2.6894    0.5044 C.2       1 <0>         0.7087
     11 O3         -3.4155   -2.0969    0.9618 O.2       1 <0>        -0.5957
     12 N2         -2.4390   -4.0370    0.4970 N.am      1 <0>        -0.7489
     13 C7         -3.5737   -4.7879    1.0400 C.3       1 <0>         0.1654
     14 C8         -3.4031   -4.9509    2.5535 C.3       1 <0>        -0.1664
     15 C9         -4.5515   -5.8032    3.0998 C.3       1 <0>         0.0640
     16 O4         -4.5640   -7.0670    2.4327 O.3       1 <0>        -0.3860
     17 C10        -4.7678   -6.9796    1.0210 C.3       1 <0>         0.0657
     18 C11        -3.6281   -6.1745    0.3912 C.3       1 <0>        -0.1633
     19 H2          1.0039    1.9031    0.0027 H         1 <0>         0.0391
     20 H3         -0.5459    1.8868   -0.8726 H         1 <0>         0.0877
     21 H4         -0.5289    1.8773    0.9072 H         1 <0>         0.0484
     22 H5          0.5123   -0.3556   -0.8948 H         1 <0>         0.0643
     23 H6          0.7568   -1.6008    1.2356 H         1 <0>         0.0478
     24 H7          1.7647   -0.1336    1.2338 H         1 <0>         0.0481
     25 H8          0.2319   -0.1594    2.1383 H         1 <0>         0.0507
     26 H9         -0.6490   -2.4712   -0.3601 H         1 <0>         0.3851
     27 H10        -1.6746   -4.5096    0.1321 H         1 <0>         0.3903
     28 H11        -4.4993   -4.2513    0.8317 H         1 <0>         0.0876
     29 H12        -2.4531   -5.4428    2.7621 H         1 <0>         0.0696
     30 H13        -3.4188   -3.9704    3.0295 H         1 <0>         0.0803
     31 H14        -4.4120   -5.9583    4.1696 H         1 <0>         0.0941
     32 H15        -5.4982   -5.2915    2.9268 H         1 <0>         0.0535
     33 H16        -4.7842   -7.9820    0.5933 H         1 <0>         0.0961
     34 H17        -5.7173   -6.4832    0.8208 H         1 <0>         0.0539
     35 H18        -3.8048   -6.0691   -0.6792 H         1 <0>         0.0812
     36 H19        -2.6826   -6.6912    0.5562 H         1 <0>         0.0748
@<TRIPOS>BOND
     1    1    2 1
     2    1   19 1
     3    1   20 1
     4    1   21 1
     5    2    3 1
     6    2    4 1
     7    2   22 1
     8    3   23 1
     9    3   24 1
    10    3   25 1
    11    4    5 1
    12    4    6 1
    13    4    9 1
    14    6    7 2
    15    6    8 1
    16    9   10 am
    17    9   26 1
    18   10   11 2
    19   10   12 am
    20   12   13 1
    21   12   27 1
    22   13   18 1
    23   13   14 1
    24   13   28 1
    25   14   15 1
    26   14   29 1
    27   14   30 1
    28   15   16 1
    29   15   31 1
    30   15   32 1
    31   16   17 1
    32   17   18 1
    33   17   33 1
    34   17   34 1
    35   18   35 1
    36   18   36 1
@<TRIPOS>MOLECULE
ZINC44712493
   30    30     0     0     0
SMALL
USER_CHARGES

@<TRIPOS>ATOM
      1 C1         -0.0187    1.5258    0.0104 C.3       1 <0>        -0.1291
      2 C2          0.0021   -0.0041    0.0020 C.3       1 <0>        -0.3947
      3 C3          0.7421   -0.5109    1.2415 C.3       1 <0>        -0.1040
      4 C4          0.0367   -0.0249    2.4814 C.ar      1 <0>        -0.0174
      5 C5          0.3884    1.1878    3.0444 C.ar      1 <0>        -0.1393
      6 C6         -0.2557    1.6381    4.1818 C.ar      1 <0>        -0.1062
      7 C7         -1.2565    0.8736    4.7598 C.ar      1 <0>         0.0571
      8 C8         -1.6107   -0.3469    4.1928 C.ar      1 <0>         0.1027
      9 C9         -0.9645   -0.7900    3.0500 C.ar      1 <0>        -0.1804
     10 O1         -2.5923   -1.1008    4.7564 O.3       1 <0>        -0.3120
     11 C10        -2.9030   -2.3421    4.1203 C.3       1 <0>         0.0243
     12 O2         -1.8907    1.3148    5.8789 O.3       1 <0>        -0.4892
     13 O3         -1.3386   -0.4987    0.0122 O.3       1 <0>        -0.5292
     14 S1          0.8511   -0.5891   -1.4904 S.o2      1 <0>         2.6234
     15 O4          0.8605   -2.0437   -1.4800 O.2       1 <0>        -1.0581
     16 O5          0.1335   -0.0975   -2.6564 O.2       1 <0>        -1.0474
     17 O6          2.2122   -0.0758   -1.4823 O.3       1 <0>        -1.0525
     18 H1          1.0039    1.9031    0.0027 H         1 <0>         0.0774
     19 H2         -0.5459    1.8868   -0.8726 H         1 <0>         0.0710
     20 H3         -0.5289    1.8773    0.9072 H         1 <0>         0.0653
     21 H4          0.7568   -1.6008    1.2356 H         1 <0>         0.0861
     22 H5          1.7647   -0.1336    1.2338 H         1 <0>         0.0958
     23 H6          1.1682    1.7846    2.5949 H         1 <0>         0.1299
     24 H7          0.0214    2.5855    4.6200 H         1 <0>         0.1327
     25 H8         -1.2401   -1.7351    2.6059 H         1 <0>         0.1313
     26 H9         -2.0166   -2.9763    4.1089 H         1 <0>         0.0553
     27 H10        -3.7006   -2.8422    4.6696 H         1 <0>         0.0978
     28 H11        -3.2287   -2.1545    3.0971 H         1 <0>         0.0582
     29 H12        -2.6758    1.8506    5.7007 H         1 <0>         0.3810
     30 H13        -1.4018   -1.4636    0.0076 H         1 <0>         0.3704
@<TRIPOS>BOND
     1    1    2 1
     2    1   18 1
     3    1   19 1
     4    1   20 1
     5    2    3 1
     6    2   13 1
     7    2   14 1
     8    3    4 1
     9    3   21 1
    10    3   22 1
    11    4    9 ar
    12    4    5 ar
    13    5    6 ar
    14    5   23 1
    15    6    7 ar
    16    6   24 1
    17    7    8 ar
    18    7   12 1
    19    8    9 ar
    20    8   10 1
    21    9   25 1
    22   10   11 1
    23   11   26 1
    24   11   27 1
    25   11   28 1
    26   12   29 1
    27   13   30 1
    28   14   15 2
    29   14   16 2
    30   14   17 1
@<TRIPOS>MOLECULE
ZINC43589507
   37    38     0     0     0
SMALL
USER_CHARGES

@<TRIPOS>ATOM
      1 C1          1.3775    1.3314    1.1712 C.2       1 <0>         0.2032
      2 C2          1.1782    2.0468    0.0066 C.2       1 <0>        -0.2879
      3 C3          0.9424    1.2953   -1.2366 C.2       1 <0>         0.5652
      4 O1          0.7615    1.8768   -2.2900 O.2       1 <0>        -0.4841
      5 N1          0.9315   -0.0533   -1.1824 N.am      1 <0>        -0.6534
      6 H1          0.7781   -0.5667   -1.9909 H         1 <0>         0.4355
      7 C4          1.1324   -0.6894   -0.0156 C.2       1 <0>         0.7004
      8 O2          1.1174   -1.9047    0.0018 O.2       1 <0>        -0.5376
      9 N2          1.3495   -0.0261    1.1310 N.am      1 <0>        -0.6266
     10 H2          1.4896   -0.5275    1.9494 H         1 <0>         0.4415
     11 C5          1.2006    3.5174    0.0090 C.2       1 <0>         0.5890
     12 O3          0.1598    4.1417   -0.0739 O.2       1 <0>        -0.5145
     13 N3          2.3742    4.1733    0.1031 N.am      1 <0>        -0.6002
     14 C6          3.6463    3.4383    0.0829 C.3       1 <0>         0.1070
     15 C7          4.4648    3.8355    1.3154 C.3       1 <0>        -0.1331
     16 C8          4.6189    5.3577    1.3516 C.3       1 <0>        -0.1166
     17 C9          3.2383    6.0095    1.4581 C.3       1 <0>        -0.1016
     18 H3          2.7365    5.6538    2.3579 H         1 <0>         0.0698
     19 C10         2.4061    5.6374    0.2215 C.3       1 <0>         0.1150
     20 C11         3.3954    7.5298    1.5281 C.3       1 <0>        -0.0848
     21 C12         2.0270    8.1738    1.7595 C.3       1 <0>        -0.1856
     22 C13         2.1817    9.6713    1.8285 C.2       1 <0>         0.4880
     23 O4          3.2843   10.1766    1.7040 O.co2     1 <0>        -0.7010
     24 O5          1.2043   10.3775    2.0087 O.co2     1 <0>        -0.7077
     25 H4          1.5581    1.8459    2.1034 H         1 <0>         0.1901
     26 H5          3.4494    2.3665    0.1049 H         1 <0>         0.0750
     27 H6          4.2004    3.6917   -0.8209 H         1 <0>         0.0725
     28 H7          3.9514    3.5003    2.2166 H         1 <0>         0.0647
     29 H8          5.4496    3.3713    1.2632 H         1 <0>         0.0737
     30 H9          5.2218    5.6413    2.2143 H         1 <0>         0.0681
     31 H10         5.1102    5.6948    0.4389 H         1 <0>         0.0658
     32 H11         2.8611    6.0665   -0.6712 H         1 <0>         0.0719
     33 H12         1.3906    6.0170    0.3350 H         1 <0>         0.0995
     34 H13         4.0625    7.7887    2.3503 H         1 <0>         0.0640
     35 H14         3.8151    7.8953    0.5908 H         1 <0>         0.0618
     36 H15         1.3598    7.9150    0.9373 H         1 <0>         0.0583
     37 H16         1.6073    7.8084    2.6968 H         1 <0>         0.0547
@<TRIPOS>BOND
     1    1    9 1
     2    1    2 2
     3    1   25 1
     4    2    3 1
     5    2   11 1
     6    3    4 2
     7    3    5 am
     8    5    6 1
     9    5    7 am
    10    7    8 2
    11    7    9 am
    12    9   10 1
    13   11   12 2
    14   11   13 am
    15   13   19 1
    16   13   14 1
    17   14   15 1
    18   14   26 1
    19   14   27 1
    20   15   16 1
    21   15   28 1
    22   15   29 1
    23   16   17 1
    24   16   30 1
    25   16   31 1
    26   17   18 1
    27   17   19 1
    28   17   20 1
    29   19   32 1
    30   19   33 1
    31   20   21 1
    32   20   34 1
    33   20   35 1
    34   21   22 1
    35   21   36 1
    36   21   37 1
    37   22   23 2
    38   22   24 1
@<TRIPOS>MOLECULE
ZINC00236594
   33    34     0     0     0
SMALL
USER_CHARGES
2-(3-nitrophenyl)aminotetrahydropyran-3,4,5-triol
@<TRIPOS>ATOM
      1 C1         -2.7732   -1.3622    2.0324 C.ar      1 <0>        -0.0685
      2 C2         -1.8490   -0.5551    1.3981 C.ar      1 <0>        -0.1391
      3 C3         -1.6368    0.7416    1.8484 C.ar      1 <0>         0.2175
      4 C4         -2.3637    1.2261    2.9287 C.ar      1 <0>        -0.1276
      5 C5         -3.2902    0.4158    3.5547 C.ar      1 <0>         0.0041
      6 C6         -3.4949   -0.8768    3.1073 C.ar      1 <0>        -0.1050
      7 N1         -4.0646    0.9309    4.7059 N.pl3     1 <0>         0.0250
      8 O1         -3.8846    2.0690    5.1007 O.2       1 <0>        -0.1570
      9 O2         -4.8820    0.2167    5.2585 O.3       1 <0>        -0.1526
     10 N2         -0.6989    1.5585    1.2130 N.pl3     1 <0>        -0.7185
     11 C7          0.1791    1.0005    0.1814 C.3       1 <0>         0.2853
     12 H1          0.3164   -0.0661    0.3590 H         1 <0>         0.0922
     13 C8          1.5372    1.7054    0.2309 C.3       1 <0>         0.0821
     14 H2          2.0090    1.5196    1.1958 H         1 <0>         0.0877
     15 C9          2.4285    1.1587   -0.8885 C.3       1 <0>         0.1250
     16 H3          2.6102    0.0966   -0.7241 H         1 <0>         0.0790
     17 C10         1.7201    1.3555   -2.2323 C.3       1 <0>         0.0380
     18 H4          1.5839    2.4206   -2.4198 H         1 <0>         0.0862
     19 C11         0.3549    0.6642   -2.1867 C.3       1 <0>         0.0404
     20 O3         -0.4116    1.1973   -1.1048 O.3       1 <0>        -0.3822
     21 O4          2.5101    0.7839   -3.2768 O.3       1 <0>        -0.5616
     22 O5          3.6721    1.8626   -0.8961 O.3       1 <0>        -0.5459
     23 O6          1.3524    3.1111    0.0525 O.3       1 <0>        -0.5344
     24 H5         -2.9357   -2.3719    1.6854 H         1 <0>         0.1502
     25 H6         -1.2888   -0.9333    0.5558 H         1 <0>         0.1394
     26 H7         -2.2041    2.2352    3.2788 H         1 <0>         0.1538
     27 H8         -4.2204   -1.5084    3.5984 H         1 <0>         0.1535
     28 H9         -0.6288    2.4953    1.4547 H         1 <0>         0.4072
     29 H10        -0.1717    0.8372   -3.1252 H         1 <0>         0.1072
     30 H11         0.4945   -0.4069   -2.0403 H         1 <0>         0.0642
     31 H12         2.1210    0.8723   -4.1576 H         1 <0>         0.3889
     32 H13         4.2869    1.5674   -1.5816 H         1 <0>         0.3899
     33 H14         0.7931    3.5228    0.7254 H         1 <0>         0.3756
@<TRIPOS>BOND
     1    1    6 ar
     2    1    2 ar
     3    1   24 1
     4    2    3 ar
     5    2   25 1
     6    3    4 ar
     7    3   10 1
     8    4    5 ar
     9    4   26 1
    10    5    6 ar
    11    5    7 1
    12    6   27 1
    13    7    8 2
    14    7    9 1
    15   10   11 1
    16   10   28 1
    17   11   12 1
    18   11   20 1
    19   11   13 1
    20   13   14 1
    21   13   15 1
    22   13   23 1
    23   15   16 1
    24   15   17 1
    25   15   22 1
    26   17   18 1
    27   17   19 1
    28   17   21 1
    29   19   20 1
    30   19   29 1
    31   19   30 1
    32   21   31 1
    33   22   32 1
    34   23   33 1
@<TRIPOS>MOLECULE
ZINC37073626
   36    38     0     0     0
SMALL
USER_CHARGES

@<TRIPOS>ATOM
      1 C1         -0.0184    1.5028    0.0103 C.3       1 <0>        -0.0992
      2 C2          0.0021   -0.0041    0.0020 C.2       1 <0>         0.1162
      3 C3          0.0079   -0.7958   -1.0953 C.2       1 <0>        -0.2657
      4 C4          0.0284   -2.1267   -0.6656 C.2       1 <0>         0.0972
      5 N1          0.0347   -2.1338    0.6427 N.2       1 <0>        -0.2925
      6 N2          0.0237   -0.8054    1.0876 N.pl3     1 <0>        -0.4731
      7 H1          0.0286   -0.5133    2.0125 H         1 <0>         0.4406
      8 C5          0.0404   -3.3426   -1.5559 C.3       1 <0>        -0.0779
      9 C6         -0.0058   -0.3266   -2.5273 C.3       1 <0>         0.2062
     10 N3          1.3708   -0.1549   -2.9981 N.pl3     1 <0>        -0.7358
     11 C7          1.6137    0.2767   -4.3053 C.ar      1 <0>         0.2383
     12 C8          0.5472    0.5485   -5.1568 C.ar      1 <0>        -0.1818
     13 C9          0.7818    0.9748   -6.4467 C.ar      1 <0>        -0.0642
     14 C10         2.0861    1.1351   -6.9028 C.ar      1 <0>         0.0511
     15 C11         3.1585    0.8627   -6.0510 C.ar      1 <0>         0.1712
     16 C12         2.9163    0.4387   -4.7497 C.ar      1 <0>        -0.2059
     17 N4          4.4697    1.0175   -6.4916 N.am      1 <0>        -0.6347
     18 H2          5.2077    0.8251   -5.8923 H         1 <0>         0.4212
     19 C13         4.7159    1.4341   -7.7502 C.2       1 <0>         0.5091
     20 O1          5.8587    1.5700   -8.1387 O.2       1 <0>        -0.4703
     21 C14         3.5715    1.7256   -8.6603 C.2       1 <0>         0.5052
     22 O2          3.7726    2.1019   -9.7978 O.2       1 <0>        -0.4772
     23 N5          2.3110    1.5666   -8.2086 N.am      1 <0>        -0.6279
     24 H3          1.5598    1.7531   -8.7932 H         1 <0>         0.4207
     25 H4          1.0042    1.8801    0.0026 H         1 <0>         0.0849
     26 H5         -0.5455    1.8639   -0.8728 H         1 <0>         0.0898
     27 H6         -0.5286    1.8543    0.9071 H         1 <0>         0.0743
     28 H7          1.0708   -3.6217   -1.7759 H         1 <0>         0.0793
     29 H8         -0.4595   -4.1685   -1.0497 H         1 <0>         0.0751
     30 H9         -0.4815   -3.1172   -2.4858 H         1 <0>         0.0796
     31 H10        -0.5122   -1.0664   -3.1473 H         1 <0>         0.0704
     32 H11        -0.5335    0.6249   -2.5928 H         1 <0>         0.0673
     33 H12         2.1138   -0.3407   -2.4028 H         1 <0>         0.4016
     34 H13        -0.4668    0.4248   -4.8063 H         1 <0>         0.1340
     35 H14        -0.0488    1.1844   -7.1045 H         1 <0>         0.1382
     36 H15         3.7430    0.2317   -4.0864 H         1 <0>         0.1345
@<TRIPOS>BOND
     1    1    2 1
     2    1   25 1
     3    1   26 1
     4    1   27 1
     5    2    6 1
     6    2    3 2
     7    3    4 1
     8    3    9 1
     9    4    5 2
    10    4    8 1
    11    5    6 1
    12    6    7 1
    13    8   28 1
    14    8   29 1
    15    8   30 1
    16    9   10 1
    17    9   31 1
    18    9   32 1
    19   10   11 1
    20   10   33 1
    21   11   16 ar
    22   11   12 ar
    23   12   13 ar
    24   12   34 1
    25   13   14 ar
    26   13   35 1
    27   14   23 1
    28   14   15 ar
    29   15   16 ar
    30   15   17 1
    31   16   36 1
    32   17   18 1
    33   17   19 am
    34   19   20 2
    35   19   21 1
    36   21   22 2
    37   21   23 am
    38   23   24 1
@<TRIPOS>MOLECULE
ZINC41665255
   30    31     0     0     0
SMALL
USER_CHARGES

@<TRIPOS>ATOM
      1 C1         -0.4786    1.4970   -2.2554 C.3       1 <0>        -0.1723
      2 C2         -0.4618   -0.0099   -2.2471 C.2       1 <0>         0.5099
      3 O1         -0.8778   -0.6262   -3.2054 O.2       1 <0>        -0.5247
      4 N1          0.0154   -0.6726   -1.1750 N.am      1 <0>        -0.6754
      5 C3         -0.0594   -2.0710   -1.1254 C.ar      1 <0>         0.1261
      6 C4         -0.3003   -2.7108    0.0833 C.ar      1 <0>        -0.1186
      7 C5         -0.3741   -4.0884    0.1325 C.ar      1 <0>        -0.1238
      8 C6         -0.2077   -4.8346   -1.0274 C.ar      1 <0>         0.1406
      9 C7          0.0329   -4.1942   -2.2365 C.ar      1 <0>        -0.1066
     10 C8          0.1017   -2.8164   -2.2859 C.ar      1 <0>        -0.0935
     11 N2         -0.2819   -6.2305   -0.9778 N.pl3     1 <0>        -0.6191
     12 C9         -0.7855   -6.9413   -2.0673 C.2       1 <0>         0.3109
     13 C10        -0.7695   -8.4133   -2.0718 C.2       1 <0>         0.5384
     14 O2         -0.3164   -9.0281   -1.1246 O.2       1 <0>        -0.4761
     15 N3         -1.2645   -9.0714   -3.1407 N.am      1 <0>        -0.6484
     16 H1         -1.2602  -10.0412   -3.1571 H         1 <0>         0.4402
     17 C11        -1.7645   -8.3835   -4.1839 C.2       1 <0>         0.6769
     18 O3         -2.2082   -8.9885   -5.1413 O.2       1 <0>        -0.5363
     19 N4         -1.7825   -7.0391   -4.1858 N.am      1 <0>        -0.5269
     20 H2         -2.1488   -6.5671   -4.9500 H         1 <0>         0.4587
     21 N5         -1.2845   -6.3106   -3.0991 N.2       1 <0>        -0.2504
     22 H3         -1.4234    1.8521   -1.8437 H         1 <0>         0.0985
     23 H4          0.3458    1.8729   -1.6495 H         1 <0>         0.0831
     24 H5         -0.3705    1.8560   -3.2788 H         1 <0>         0.0979
     25 H6          0.4107   -0.1816   -0.4378 H         1 <0>         0.4122
     26 H7         -0.4297   -2.1306    0.9850 H         1 <0>         0.1318
     27 H8         -0.5608   -4.5860    1.0727 H         1 <0>         0.1329
     28 H9          0.1626   -4.7741   -3.1384 H         1 <0>         0.1387
     29 H10         0.2851   -2.3183   -3.2265 H         1 <0>         0.1427
     30 H11         0.0167   -6.7042   -0.1858 H         1 <0>         0.4326
@<TRIPOS>BOND
     1    1    2 1
     2    1   22 1
     3    1   23 1
     4    1   24 1
     5    2    3 2
     6    2    4 am
     7    4    5 1
     8    4   25 1
     9    5   10 ar
    10    5    6 ar
    11    6    7 ar
    12    6   26 1
    13    7    8 ar
    14    7   27 1
    15    8    9 ar
    16    8   11 1
    17    9   10 ar
    18    9   28 1
    19   10   29 1
    20   11   12 1
    21   11   30 1
    22   12   21 2
    23   12   13 1
    24   13   14 2
    25   13   15 am
    26   15   16 1
    27   15   17 am
    28   17   18 2
    29   17   19 am
    30   19   20 1
    31   19   21 1
@<TRIPOS>MOLECULE
ZINC48950276
   28    29     0     0     0
SMALL
USER_CHARGES

@<TRIPOS>ATOM
      1 C1         -0.0178    1.4608    0.0101 C.3       1 <0>         0.1025
      2 N1          0.0021   -0.0041    0.0020 N.am      1 <0>        -0.7480
      3 C2          0.6044   -0.6754    1.0035 C.2       1 <0>         0.7120
      4 O1          1.1313   -0.0652    1.9137 O.2       1 <0>        -0.5647
      5 N2          0.6227   -2.0230    0.9961 N.am      1 <0>        -0.5291
      6 N3          0.0156   -2.7260   -0.0527 N.am      1 <0>        -0.5251
      7 C3          0.0338   -4.0736   -0.0601 C.2       1 <0>         0.5639
      8 O2          0.5773   -4.6793    0.8435 O.2       1 <0>        -0.5190
      9 C4         -0.6052   -4.8137   -1.1640 C.ar      1 <0>        -0.0532
     10 C5         -1.2231   -4.1274   -2.2030 C.ar      1 <0>        -0.1157
     11 C6         -1.8242   -4.8209   -3.2403 C.ar      1 <0>        -0.0778
     12 C7         -1.8210   -6.1990   -3.2629 C.ar      1 <0>        -0.1054
     13 C8         -1.2099   -6.9147   -2.2370 C.ar      1 <0>         0.1213
     14 C9         -0.5897   -6.2269   -1.1781 C.ar      1 <0>        -0.1258
     15 C10        -0.0595   -7.2028   -0.3065 C.2       1 <0>         0.0861
     16 N4         -0.3251   -8.3830   -0.7897 N.2       1 <0>        -0.2416
     17 N5         -1.0451   -8.2532   -1.9837 N.pl3     1 <0>        -0.5034
     18 H1         -1.3634   -8.9818   -2.5394 H         1 <0>         0.4452
     19 H2          1.0048    1.8381    0.0023 H         1 <0>         0.0638
     20 H3         -0.5450    1.8219   -0.8730 H         1 <0>         0.0805
     21 H4         -0.5280    1.8123    0.9069 H         1 <0>         0.0638
     22 H5         -0.4183   -0.4908   -0.7241 H         1 <0>         0.3917
     23 H6          1.0561   -2.5061    1.7169 H         1 <0>         0.4456
     24 H7         -0.4179   -2.2429   -0.7735 H         1 <0>         0.4190
     25 H8         -1.2349   -3.0475   -2.2011 H         1 <0>         0.1298
     26 H9         -2.3015   -4.2753   -4.0409 H         1 <0>         0.1426
     27 H10        -2.2944   -6.7252   -4.0786 H         1 <0>         0.1358
     28 H11         0.4774   -7.0038    0.6092 H         1 <0>         0.2051
@<TRIPOS>BOND
     1    1    2 1
     2    1   19 1
     3    1   20 1
     4    1   21 1
     5    2    3 am
     6    2   22 1
     7    3    4 2
     8    3    5 am
     9    5    6 1
    10    5   23 1
    11    6    7 am
    12    6   24 1
    13    7    8 2
    14    7    9 1
    15    9   14 ar
    16    9   10 ar
    17   10   11 ar
    18   10   25 1
    19   11   12 ar
    20   11   26 1
    21   12   13 ar
    22   12   27 1
    23   13   17 1
    24   13   14 ar
    25   14   15 1
    26   15   16 2
    27   15   28 1
    28   16   17 1
    29   17   18 1
@<TRIPOS>MOLECULE
ZINC57354172
   27    30     0     0     0
SMALL
USER_CHARGES

@<TRIPOS>ATOM
      1 C1         -0.0167    1.3807    0.0096 C.ar      1 <0>        -0.1156
      2 C2          1.1479    2.1233    0.0025 C.ar      1 <0>        -0.0814
      3 C3          2.4019    1.5238   -0.0247 C.ar      1 <0>        -0.0817
      4 C4          2.4446    0.1431   -0.0399 C.ar      1 <0>        -0.1060
      5 C5          1.2597   -0.6231   -0.0119 C.ar      1 <0>        -0.1675
      6 C6          0.0021   -0.0041    0.0020 C.ar      1 <0>        -0.0393
      7 C7          1.5895   -2.0514    0.0321 C.2       1 <0>         0.3894
      8 O1          0.8775   -2.9580    0.4079 O.2       1 <0>        -0.3953
      9 C8          3.0253   -2.1566   -0.4983 C.3       1 <0>         0.3302
     10 C9          3.6032   -0.7895   -0.1008 C.3       1 <0>         0.4314
     11 N1          4.7105   -0.3519   -0.9177 N.pl3     1 <0>        -0.6999
     12 C10         4.7538   -0.7022   -2.2902 C.2       1 <0>         0.3143
     13 C11         3.8677   -1.6697   -2.7963 C.2       1 <0>         0.3109
     14 N2          3.9942   -1.9497   -4.0771 N.2       1 <0>        -0.4740
     15 S1          5.2310   -0.9497   -4.5912 S.3       1 <0>         0.4096
     16 N3          5.5923   -0.1747   -3.1547 N.2       1 <0>        -0.4754
     17 N4          2.8994   -2.2690   -1.9588 N.pl3     1 <0>        -0.7022
     18 O2          4.1026   -0.9211    1.2316 O.3       1 <0>        -0.5257
     19 O3          3.7433   -3.2533    0.0708 O.3       1 <0>        -0.5130
     20 H1         -0.9671    1.8935    0.0260 H         1 <0>         0.1375
     21 H2          1.0824    3.2012    0.0181 H         1 <0>         0.1368
     22 H3          3.3064    2.1139   -0.0332 H         1 <0>         0.1429
     23 H4         -0.9109   -0.5810    0.0063 H         1 <0>         0.1466
     24 H5          5.4221    0.1802   -0.5285 H         1 <0>         0.4212
     25 H6          2.1536   -2.7529   -2.3468 H         1 <0>         0.4216
     26 H7          4.4185   -0.0923    1.6169 H         1 <0>         0.3906
     27 H8          3.3553   -4.1184   -0.1192 H         1 <0>         0.3941
@<TRIPOS>BOND
     1    1    6 ar
     2    1    2 ar
     3    1   20 1
     4    2    3 ar
     5    2   21 1
     6    3    4 ar
     7    3   22 1
     8    4   10 1
     9    4    5 ar
    10    5    6 ar
    11    5    7 1
    12    6   23 1
    13    7    8 2
    14    7    9 1
    15    9   17 1
    16    9   10 1
    17    9   19 1
    18   10   11 1
    19   10   18 1
    20   11   12 1
    21   11   24 1
    22   12   16 2
    23   12   13 1
    24   13   14 2
    25   13   17 1
    26   14   15 1
    27   15   16 1
    28   17   25 1
    29   18   26 1
    30   19   27 1
@<TRIPOS>MOLECULE
ZINC05024942
   38    40     0     0     0
SMALL
USER_CHARGES
dimethylBLAHtrione
@<TRIPOS>ATOM
      1 C1         -1.1591    5.5435    0.5936 C.3       1 <0>        -0.1796
      2 C2         -0.2007    5.3450   -0.5825 C.3       1 <0>         0.1243
      3 C3          0.2314    3.8777   -0.6471 C.3       1 <0>        -0.1464
      4 C4         -0.9980    3.0012   -0.9011 C.3       1 <0>         0.1127
      5 C5         -1.6881    3.4630   -2.1873 C.3       1 <0>        -0.1464
      6 C6         -2.0458    4.9464   -2.0619 C.3       1 <0>         0.0619
      7 O1         -0.8601    5.6996   -1.7997 O.3       1 <0>        -0.3704
      8 C7         -0.5626    1.5423   -1.0508 C.3       1 <0>        -0.1376
      9 H1         -1.4507    0.9162   -1.1378 H         1 <0>         0.1321
     10 C8          0.2250    1.1330    0.1938 C.3       1 <0>        -0.1260
     11 H2          0.2994    0.0464    0.2358 H         1 <0>         0.1508
     12 C9          1.6070    1.7295    0.1453 C.2       1 <0>         0.5411
     13 O2          2.1679    2.0257    1.1790 O.2       1 <0>        -0.4899
     14 N1          2.2271    1.9376   -1.0298 N.am      1 <0>        -0.5162
     15 N2          1.6162    1.5509   -2.2291 N.am      1 <0>        -0.5133
     16 C10         0.2820    1.3803   -2.2820 C.2       1 <0>         0.5389
     17 O3         -0.2441    1.0916   -3.3360 O.2       1 <0>        -0.5025
     18 C11        -0.4882    1.6352    1.4206 C.2       1 <0>         0.5222
     19 O4         -0.1813    1.1765    2.5006 O.2       1 <0>        -0.5042
     20 N3         -1.4461    2.5637    1.3674 N.am      1 <0>        -0.5505
     21 N4         -1.9279    3.1148    0.2263 N.3       1 <0>        -0.4259
     22 C12         1.0313    6.2319   -0.3920 C.3       1 <0>        -0.1407
     23 H3         -0.7175    5.1231    1.4971 H         1 <0>         0.0589
     24 H4         -1.3399    6.6085    0.7392 H         1 <0>         0.0504
     25 H5         -2.1026    5.0403    0.3823 H         1 <0>         0.0997
     26 H6          0.6931    3.5922    0.2981 H         1 <0>         0.0812
     27 H7          0.9479    3.7436   -1.4575 H         1 <0>         0.0860
     28 H8         -1.0152    3.3209   -3.0329 H         1 <0>         0.0928
     29 H9         -2.5967    2.8811   -2.3421 H         1 <0>         0.0881
     30 H10        -2.7515    5.0822   -1.2423 H         1 <0>         0.0679
     31 H11        -2.4978    5.2916   -2.9918 H         1 <0>         0.0985
     32 H12         3.1013    2.3576   -1.0468 H         1 <0>         0.4341
     33 H13         2.1551    1.4056   -3.0224 H         1 <0>         0.4331
     34 H14        -1.8251    2.8664    2.2074 H         1 <0>         0.4287
     35 H15        -2.8300    2.7287   -0.0088 H         1 <0>         0.3487
     36 H16         1.7137    6.0908   -1.2302 H         1 <0>         0.0600
     37 H17         0.7235    7.2765   -0.3461 H         1 <0>         0.0679
     38 H18         1.5346    5.9603    0.5359 H         1 <0>         0.0700
@<TRIPOS>BOND
     1    1    2 1
     2    1   23 1
     3    1   24 1
     4    1   25 1
     5    2    7 1
     6    2    3 1
     7    2   22 1
     8    3    4 1
     9    3   26 1
    10    3   27 1
    11    4   21 1
    12    4    5 1
    13    4    8 1
    14    5    6 1
    15    5   28 1
    16    5   29 1
    17    6    7 1
    18    6   30 1
    19    6   31 1
    20    8    9 1
    21    8   16 1
    22    8   10 1
    23   10   11 1
    24   10   12 1
    25   10   18 1
    26   12   13 2
    27   12   14 am
    28   14   15 1
    29   14   32 1
    30   15   16 am
    31   15   33 1
    32   16   17 2
    33   18   19 2
    34   18   20 am
    35   20   21 1
    36   20   34 1
    37   21   35 1
    38   22   36 1
    39   22   37 1
    40   22   38 1
@<TRIPOS>MOLECULE
ZINC35247871
   32    33     0     0     0
SMALL
USER_CHARGES

@<TRIPOS>ATOM
      1 C1         -0.0177    1.3553    0.0135 C.2       1 <0>         0.0251
      2 C2          1.2708    1.7824    0.0038 C.2       1 <0>        -0.0036
      3 C3          2.0986    0.6503   -0.0088 C.2       1 <0>         0.0548
      4 N1          1.3391   -0.4149   -0.0068 N.2       1 <0>        -0.2822
      5 N2          0.0005   -0.0026    0.0072 N.pl3     1 <0>        -0.4735
      6 H1         -0.7759   -0.5841    0.0115 H         1 <0>         0.4453
      7 N3          1.6998    3.1231    0.0056 N.am      1 <0>        -0.6425
      8 C4          3.0168    3.4092   -0.0049 C.2       1 <0>         0.5237
      9 O1          3.8325    2.5114   -0.0159 O.2       1 <0>        -0.5207
     10 C5          3.4761    4.8445   -0.0029 C.3       1 <0>        -0.1193
     11 H2          3.1057    5.3438    0.8923 H         1 <0>         0.1057
     12 C6          5.0057    4.8914   -0.0180 C.3       1 <0>        -0.1007
     13 C7          5.4735    6.3481    0.0171 C.3       1 <0>        -0.1361
     14 C8          4.9552    7.0768   -1.2268 C.3       1 <0>         0.1074
     15 N4          3.4969    6.9129   -1.2975 N.am      1 <0>        -0.6275
     16 C9          2.9345    5.5564   -1.2466 C.3       1 <0>         0.1388
     17 C10         2.6897    7.9866   -1.4066 C.2       1 <0>         0.7108
     18 O2          1.4927    7.8346   -1.5564 O.2       1 <0>        -0.5914
     19 N5          3.2093    9.2289   -1.3497 N.am      1 <0>        -0.8666
     20 H3         -0.8975    1.9816    0.0283 H         1 <0>         0.1812
     21 H4          3.1786    0.6568   -0.0185 H         1 <0>         0.2064
     22 H5          1.0476    3.8410    0.0145 H         1 <0>         0.4123
     23 H6          5.3938    4.3643    0.8536 H         1 <0>         0.0788
     24 H7          5.3748    4.4132   -0.9253 H         1 <0>         0.0764
     25 H8          5.0842    6.8338    0.9119 H         1 <0>         0.0702
     26 H9          6.5630    6.3801    0.0300 H         1 <0>         0.0845
     27 H10         5.2009    8.1365   -1.1583 H         1 <0>         0.0807
     28 H11         5.4146    6.6499   -2.1183 H         1 <0>         0.0753
     29 H12         3.2287    5.0056   -2.1400 H         1 <0>         0.0749
     30 H13         1.8474    5.6128   -1.1910 H         1 <0>         0.0991
     31 H14         4.1705    9.3509   -1.3041 H         1 <0>         0.3969
     32 H15         2.6221   10.0009   -1.3542 H         1 <0>         0.4158
@<TRIPOS>BOND
     1    1    5 1
     2    1    2 2
     3    1   20 1
     4    2    3 1
     5    2    7 1
     6    3    4 2
     7    3   21 1
     8    4    5 1
     9    5    6 1
    10    7    8 am
    11    7   22 1
    12    8    9 2
    13    8   10 1
    14   10   11 1
    15   10   16 1
    16   10   12 1
    17   12   13 1
    18   12   23 1
    19   12   24 1
    20   13   14 1
    21   13   25 1
    22   13   26 1
    23   14   15 1
    24   14   27 1
    25   14   28 1
    26   15   16 1
    27   15   17 am
    28   16   29 1
    29   16   30 1
    30   17   18 2
    31   17   19 am
    32   19   31 1
    33   19   32 1
@<TRIPOS>MOLECULE
ZINC42414223
   32    33     0     0     0
SMALL
USER_CHARGES

@<TRIPOS>ATOM
      1 C1         -0.0131    1.4013    0.0280 C.2       1 <0>        -0.2695
      2 C2          1.2681    1.8342    0.0233 C.2       1 <0>         0.0683
      3 N1          2.0715    0.7497    0.0136 N.pl3     1 <0>        -0.4691
      4 H1          3.0414    0.7591    0.0090 H         1 <0>         0.4435
      5 N2          1.2597   -0.3918    0.0122 N.2       1 <0>        -0.3200
      6 C3          0.0065   -0.0027    0.0208 C.2       1 <0>         0.2980
      7 N3         -1.1161   -0.8418    0.0232 N.am      1 <0>        -0.6356
      8 C4         -2.3546   -0.3103    0.0332 C.2       1 <0>         0.5322
      9 O1         -2.4977    0.8941    0.0401 O.2       1 <0>        -0.5055
     10 C5         -3.5617   -1.2125    0.0358 C.3       1 <0>        -0.1181
     11 H2         -3.5508   -1.8374   -0.8572 H         1 <0>         0.1093
     12 C6         -4.8345   -0.3628    0.0493 C.3       1 <0>        -0.1007
     13 C7         -6.0610   -1.2777    0.0188 C.3       1 <0>        -0.1359
     14 C8         -6.0605   -2.1674    1.2658 C.3       1 <0>         0.1074
     15 N4         -4.7777   -2.8802    1.3377 N.am      1 <0>        -0.6275
     16 C9         -3.5324   -2.1021    1.2826 C.3       1 <0>         0.1369
     17 C10        -4.7434   -4.2226    1.4520 C.2       1 <0>         0.7106
     18 O2         -3.6789   -4.8090    1.4148 O.2       1 <0>        -0.5899
     19 N5         -5.8892   -4.9152    1.6074 N.am      1 <0>        -0.8662
     20 H3         -0.8949    2.0248    0.0398 H         1 <0>         0.1725
     21 H4          1.5910    2.8648    0.0265 H         1 <0>         0.1818
     22 H5         -1.0017   -1.8050    0.0177 H         1 <0>         0.4182
     23 H6         -4.8565    0.2440    0.9545 H         1 <0>         0.0771
     24 H7         -4.8455    0.2885   -0.8246 H         1 <0>         0.0796
     25 H8         -6.9668   -0.6715    0.0048 H         1 <0>         0.0854
     26 H9         -6.0268   -1.9023   -0.8738 H         1 <0>         0.0707
     27 H10        -6.1858   -1.5500    2.1553 H         1 <0>         0.0753
     28 H11        -6.8757   -2.8880    1.2009 H         1 <0>         0.0811
     29 H12        -2.6800   -2.7792    1.2285 H         1 <0>         0.1010
     30 H13        -3.4513   -1.4797    2.1738 H         1 <0>         0.0761
     31 H14        -6.7428   -4.4564    1.5648 H         1 <0>         0.3968
     32 H15        -5.8602   -5.8723    1.7618 H         1 <0>         0.4160
@<TRIPOS>BOND
     1    1    6 1
     2    1    2 2
     3    1   20 1
     4    2    3 1
     5    2   21 1
     6    3    4 1
     7    3    5 1
     8    5    6 2
     9    6    7 1
    10    7    8 am
    11    7   22 1
    12    8    9 2
    13    8   10 1
    14   10   11 1
    15   10   16 1
    16   10   12 1
    17   12   13 1
    18   12   23 1
    19   12   24 1
    20   13   14 1
    21   13   25 1
    22   13   26 1
    23   14   15 1
    24   14   27 1
    25   14   28 1
    26   15   16 1
    27   15   17 am
    28   16   29 1
    29   16   30 1
    30   17   18 2
    31   17   19 am
    32   19   31 1
    33   19   32 1
@<TRIPOS>MOLECULE
ZINC48836167
   39    40     0     0     0
SMALL
USER_CHARGES

@<TRIPOS>ATOM
      1 C1         -0.0218    1.5005    0.0124 C.3       1 <0>        -0.0533
      2 C2         -0.0008   -0.0063    0.0031 C.2       1 <0>         0.0271
      3 C3         -1.0978   -0.8215    0.0023 C.2       1 <0>        -0.2304
      4 C4         -0.5691   -2.1945   -0.0082 C.2       1 <0>        -0.1322
      5 C5          0.7667   -2.0747   -0.0126 C.2       1 <0>        -0.0912
      6 O1          1.0928   -0.7726   -0.0117 O.3       1 <0>        -0.1857
      7 C6          1.7460   -3.2201   -0.0226 C.3       1 <0>         0.2308
      8 N1          2.0581   -3.5836   -1.4071 N.am      1 <0>        -0.7359
      9 C7          2.9182   -4.5894   -1.6622 C.2       1 <0>         0.7092
     10 O2          3.5054   -5.1339   -0.7473 O.2       1 <0>        -0.5762
     11 N2          3.1275   -4.9915   -2.9314 N.am      1 <0>        -0.6394
     12 C8          3.9712   -6.1600   -3.2170 C.3       1 <0>         0.1335
     13 C9          3.1795   -7.1381   -4.0907 C.3       1 <0>        -0.1590
     14 C10         2.6739   -6.4082   -5.3372 C.3       1 <0>         0.0277
     15 C11         1.7408   -5.2691   -4.9201 C.3       1 <0>        -0.1607
     16 C12         2.5113   -4.2734   -4.0554 C.3       1 <0>         0.1129
     17 N3          1.9423   -7.3513   -6.1936 N.4       1 <0>        -0.6359
     18 C13        -2.5092   -0.4124    0.0106 C.2       1 <0>         0.5434
     19 O3         -3.3919   -1.2600    0.0088 O.co2     1 <0>        -0.6902
     20 O4         -2.8019    0.7757    0.0195 O.co2     1 <0>        -0.6831
     21 H1          1.0007    1.8782    0.0058 H         1 <0>         0.0590
     22 H2         -0.5484    1.8621   -0.8708 H         1 <0>         0.0896
     23 H3         -0.5328    1.8512    0.9091 H         1 <0>         0.0908
     24 H4         -1.1400   -3.1113   -0.0116 H         1 <0>         0.1474
     25 H5          2.6605   -2.9208    0.4894 H         1 <0>         0.0840
     26 H6          1.3076   -4.0775    0.4881 H         1 <0>         0.0963
     27 H7          1.6457   -3.1005   -2.1401 H         1 <0>         0.3986
     28 H8          4.8692   -5.8417   -3.7465 H         1 <0>         0.0781
     29 H9          4.2489   -6.6473   -2.2824 H         1 <0>         0.1148
     30 H10         3.8253   -7.9638   -4.3895 H         1 <0>         0.1011
     31 H11         2.3309   -7.5251   -3.5264 H         1 <0>         0.0938
     32 H12         3.5214   -6.0002   -5.8879 H         1 <0>         0.1446
     33 H13         1.3627   -4.7645   -5.8091 H         1 <0>         0.1036
     34 H14         0.9059   -5.6737   -4.3480 H         1 <0>         0.0961
     35 H15         1.8262   -3.5164   -3.6739 H         1 <0>         0.1008
     36 H16         3.2876   -3.7978   -4.6548 H         1 <0>         0.0841
     37 H17         1.1580   -7.7296   -5.6839 H         1 <0>         0.4345
     38 H18         1.6089   -6.8702   -7.0154 H         1 <0>         0.4362
     39 H19         2.5576   -8.1018   -6.4696 H         1 <0>         0.4355
@<TRIPOS>BOND
     1    1    2 1
     2    1   21 1
     3    1   22 1
     4    1   23 1
     5    2    6 1
     6    2    3 2
     7    3    4 1
     8    3   18 1
     9    4    5 2
    10    4   24 1
    11    5    6 1
    12    5    7 1
    13    7    8 1
    14    7   25 1
    15    7   26 1
    16    8    9 am
    17    8   27 1
    18    9   10 2
    19    9   11 am
    20   11   16 1
    21   11   12 1
    22   12   13 1
    23   12   28 1
    24   12   29 1
    25   13   14 1
    26   13   30 1
    27   13   31 1
    28   14   15 1
    29   14   17 1
    30   14   32 1
    31   15   16 1
    32   15   33 1
    33   15   34 1
    34   16   35 1
    35   16   36 1
    36   17   37 1
    37   17   38 1
    38   17   39 1
    39   18   19 2
    40   18   20 1
@<TRIPOS>MOLECULE
ZINC52518596
   35    36     0     0     0
SMALL
USER_CHARGES

@<TRIPOS>ATOM
      1 C1         -0.0185    1.5137    0.0104 C.3       1 <0>        -0.1212
      2 C2          1.3616    2.1453    0.0006 C.3       1 <0>        -0.1453
      3 C3          2.0772    1.8715   -1.3236 C.3       1 <0>         0.1021
      4 N1          2.7676    0.5751   -1.2267 N.am      1 <0>        -0.7212
      5 C4          2.0714   -0.5625   -1.2271 C.2       1 <0>         0.5072
      6 O1          2.6505   -1.6255   -1.1516 O.2       1 <0>        -0.5388
      7 C5          0.5604   -0.5314   -1.3210 C.3       1 <0>         0.1293
      8 H1          0.2576    0.1274   -2.1349 H         1 <0>         0.1156
      9 C6          0.0021   -0.0041    0.0020 C.3       1 <0>        -0.1225
     10 N2          0.0546   -1.8838   -1.5684 N.am      1 <0>        -0.7063
     11 C7         -0.0079   -2.3601   -2.8276 C.2       1 <0>         0.5276
     12 O2          0.3547   -1.6691   -3.7560 O.2       1 <0>        -0.5358
     13 C8         -0.5282   -3.7514   -3.0820 C.3       1 <0>        -0.1434
     14 C9         -0.4939   -4.0420   -4.5838 C.3       1 <0>         0.1086
     15 H2          0.5116   -3.8965   -4.9786 H         1 <0>         0.1390
     16 C10        -0.9790   -5.4501   -4.8657 C.2       1 <0>         0.5300
     17 O3         -0.4852   -6.4865   -4.4759 O.2       1 <0>        -0.4593
     18 N3         -2.0737   -5.3104   -5.6393 N.am      1 <0>        -0.6783
     19 C11        -2.3449   -4.0231   -5.8827 C.2       1 <0>         0.7012
     20 O4         -3.2834   -3.6461   -6.5567 O.2       1 <0>        -0.5397
     21 N4         -1.4597   -3.1898   -5.2988 N.am      1 <0>        -0.7133
     22 H3         -0.5486    1.8496    0.9016 H         1 <0>         0.0758
     23 H4         -0.5655    1.8591   -0.8669 H         1 <0>         0.0694
     24 H5          1.2640    3.2220    0.1393 H         1 <0>         0.0826
     25 H6          1.9510    1.7313    0.8187 H         1 <0>         0.0730
     26 H7          1.3482    1.8380   -2.1332 H         1 <0>         0.0788
     27 H8          2.8049    2.6599   -1.5159 H         1 <0>         0.0919
     28 H9          3.7350    0.5480   -1.1618 H         1 <0>         0.4035
     29 H10         0.6267   -0.3590    0.8217 H         1 <0>         0.0750
     30 H11        -1.0130   -0.3775    0.1375 H         1 <0>         0.0870
     31 H12        -0.2354   -2.4365   -0.8258 H         1 <0>         0.4087
     32 H13         0.0965   -4.4745   -2.5577 H         1 <0>         0.1265
     33 H14        -1.5537   -3.8275   -2.7205 H         1 <0>         0.1100
     34 H15        -2.5997   -6.0517   -5.9781 H         1 <0>         0.4354
     35 H16        -1.4585   -2.2207   -5.3394 H         1 <0>         0.4467
@<TRIPOS>BOND
     1    1    9 1
     2    1    2 1
     3    1   22 1
     4    1   23 1
     5    2    3 1
     6    2   24 1
     7    2   25 1
     8    3    4 1
     9    3   26 1
    10    3   27 1
    11    4    5 am
    12    4   28 1
    13    5    6 2
    14    5    7 1
    15    7    8 1
    16    7    9 1
    17    7   10 1
    18    9   29 1
    19    9   30 1
    20   10   11 am
    21   10   31 1
    22   11   12 2
    23   11   13 1
    24   13   14 1
    25   13   32 1
    26   13   33 1
    27   14   15 1
    28   14   21 1
    29   14   16 1
    30   16   17 2
    31   16   18 am
    32   18   19 am
    33   18   34 1
    34   19   20 2
    35   19   21 am
    36   21   35 1
@<TRIPOS>MOLECULE
ZINC03595745
   38    39     0     0     0
SMALL
USER_CHARGES
N-carbamoyl-2-(10-methyl-2,4-dioxo-1,3-diazaspiro[4.5]dec-3-yl)-acetamide
@<TRIPOS>ATOM
      1 C1         -0.7120    3.2931    2.5200 C.3       1 <0>        -0.1551
      2 C2         -1.2130    4.0527    1.2901 C.3       1 <0>        -0.0852
      3 H1         -0.8278    5.0722    1.3117 H         1 <0>         0.0974
      4 C3         -2.7434    4.0857    1.2997 C.3       1 <0>        -0.1123
      5 C4         -3.2442    4.8276    0.0588 C.3       1 <0>        -0.1256
      6 C5         -2.7673    4.0988   -1.1992 C.3       1 <0>        -0.1168
      7 C6         -1.2370    4.0661   -1.2191 C.3       1 <0>        -0.1170
      8 C7         -0.7247    3.3522    0.0269 C.3       1 <0>         0.1333
      9 C8          0.7854    3.2854    0.0122 C.2       1 <0>         0.5398
     10 O1          1.5612    4.2170    0.0098 O.2       1 <0>        -0.4568
     11 N1          1.0879    1.9707    0.0023 N.am      1 <0>        -0.5657
     12 C9         -0.0144    1.2112    0.0087 C.2       1 <0>         0.7099
     13 O2          0.0021   -0.0041    0.0020 O.2       1 <0>        -0.5382
     14 N2         -1.1438    1.9449    0.0176 N.am      1 <0>        -0.7097
     15 C10         2.4533    1.4401   -0.0144 C.3       1 <0>         0.1025
     16 C11         2.9072    1.2660   -1.4408 C.2       1 <0>         0.5042
     17 O3          2.1637    1.5563   -2.3533 O.2       1 <0>        -0.4512
     18 N3          4.1398    0.7874   -1.7021 N.am      1 <0>        -0.6874
     19 C12         4.5457    0.6316   -2.9778 C.2       1 <0>         0.6973
     20 O4          3.8003    0.9227   -3.8925 O.2       1 <0>        -0.5306
     21 N4          5.7783    0.1531   -3.2391 N.am      1 <0>        -0.8551
     22 H2          0.3777    3.2713    2.5146 H         1 <0>         0.0516
     23 H3         -1.0609    3.7936    3.4233 H         1 <0>         0.0702
     24 H4         -1.0960    2.2732    2.4985 H         1 <0>         0.0619
     25 H5         -3.1290    3.0662    1.2939 H         1 <0>         0.0657
     26 H6         -3.0902    4.6004    2.1957 H         1 <0>         0.0759
     27 H7         -4.3337    4.8590    0.0694 H         1 <0>         0.0703
     28 H8         -2.8515    5.8444    0.0603 H         1 <0>         0.0689
     29 H9         -3.1526    3.0792   -1.1968 H         1 <0>         0.0650
     30 H10        -3.1313    4.6229   -2.0830 H         1 <0>         0.0759
     31 H11        -0.8523    5.0858   -1.2372 H         1 <0>         0.0900
     32 H12        -0.8968    3.5344   -2.1078 H         1 <0>         0.0793
     33 H13        -2.0541    1.6100    0.0194 H         1 <0>         0.4410
     34 H14         3.1195    2.1353    0.4966 H         1 <0>         0.1340
     35 H15         2.4747    0.4762    0.4940 H         1 <0>         0.1368
     36 H16         4.7347    0.5551   -0.9720 H         1 <0>         0.4128
     37 H17         6.3732   -0.0793   -2.5090 H         1 <0>         0.4009
     38 H18         6.0704    0.0409   -4.1572 H         1 <0>         0.4220
@<TRIPOS>BOND
     1    1    2 1
     2    1   22 1
     3    1   23 1
     4    1   24 1
     5    2    3 1
     6    2    8 1
     7    2    4 1
     8    4    5 1
     9    4   25 1
    10    4   26 1
    11    5    6 1
    12    5   27 1
    13    5   28 1
    14    6    7 1
    15    6   29 1
    16    6   30 1
    17    7    8 1
    18    7   31 1
    19    7   32 1
    20    8   14 1
    21    8    9 1
    22    9   10 2
    23    9   11 am
    24   11   12 am
    25   11   15 1
    26   12   13 2
    27   12   14 am
    28   14   33 1
    29   15   16 1
    30   15   34 1
    31   15   35 1
    32   16   17 2
    33   16   18 am
    34   18   19 am
    35   18   36 1
    36   19   20 2
    37   19   21 am
    38   21   37 1
    39   21   38 1
@<TRIPOS>MOLECULE
ZINC20000407
   31    32     0     0     0
SMALL
USER_CHARGES
4-[(6-hydrazino-3-pyridyl)sulfonyl]piperazin-2-one
@<TRIPOS>ATOM
      1 C1         -1.2295    2.4426    0.0211 C.ar      1 <0>         0.0630
      2 C2         -1.2040    3.8258    0.0342 C.ar      1 <0>        -0.2544
      3 C3          0.0235    4.4798    0.0264 C.ar      1 <0>         0.4557
      4 N1          1.1542    3.7906    0.0119 N.ar      1 <0>        -0.5372
      5 C4          1.1602    2.4712    0.0043 C.ar      1 <0>         0.2560
      6 C5         -0.0218    1.7577    0.0117 C.ar      1 <0>        -0.7994
      7 S1          0.0021   -0.0041    0.0020 S.o2      1 <0>         2.7053
      8 O1         -1.2429   -0.4241   -0.5392 O.2       1 <0>        -0.9502
      9 O2          1.2475   -0.3902   -0.5628 O.2       1 <0>        -0.9489
     10 N2          0.0238   -0.5021    1.5812 N.pl3     1 <0>        -1.0054
     11 C6          1.2914   -0.7214    2.2981 C.3       1 <0>         0.0986
     12 C7          1.3367    0.2495    3.4857 C.3       1 <0>         0.0997
     13 N3          0.0765    0.2306    4.2157 N.am      1 <0>        -0.7272
     14 C8         -1.0883   -0.1717    3.7053 C.2       1 <0>         0.5121
     15 O3         -2.0858   -0.0666    4.3871 O.2       1 <0>        -0.5488
     16 C9         -1.2217   -0.7494    2.3227 C.3       1 <0>         0.1085
     17 N4          0.0638    5.8692    0.0336 N.pl3     1 <0>        -0.5785
     18 N5          1.2660    6.5178    0.0255 N.3       1 <0>        -0.5725
     19 H1         -2.1677    1.9076    0.0226 H         1 <0>         0.1493
     20 H2         -2.1248    4.3901    0.0461 H         1 <0>         0.1409
     21 H3          2.1018    1.9425   -0.0076 H         1 <0>         0.1709
     22 H4          1.3358   -1.7610    2.6547 H         1 <0>         0.0923
     23 H5          2.1349   -0.5306    1.6183 H         1 <0>         0.1176
     24 H6          2.1472   -0.0444    4.1688 H         1 <0>         0.0939
     25 H7          1.5189    1.2701    3.1182 H         1 <0>         0.0690
     26 H8          0.0428    0.5640    5.2634 H         1 <0>         0.4247
     27 H9         -2.0617   -0.2699    1.7987 H         1 <0>         0.1229
     28 H10        -1.4006   -1.8328    2.3880 H         1 <0>         0.1138
     29 H11        -0.8725    6.4464    0.0458 H         1 <0>         0.4364
     30 H12         1.0963    7.6046    0.0331 H         1 <0>         0.3552
     31 H13         1.8436    6.2306    0.9165 H         1 <0>         0.3365
@<TRIPOS>BOND
     1    1    6 ar
     2    1    2 ar
     3    1   19 1
     4    2    3 ar
     5    2   20 1
     6    3    4 ar
     7    3   17 1
     8    4    5 ar
     9    5    6 ar
    10    5   21 1
    11    6    7 1
    12    7    8 2
    13    7    9 2
    14    7   10 1
    15   10   16 1
    16   10   11 1
    17   11   12 1
    18   11   22 1
    19   11   23 1
    20   12   13 1
    21   12   24 1
    22   12   25 1
    23   13   14 am
    24   13   26 1
    25   14   15 2
    26   14   16 1
    27   16   27 1
    28   16   28 1
    29   17   18 1
    30   17   29 1
    31   18   30 1
    32   18   31 1
@<TRIPOS>MOLECULE
ZINC44877839
   38    38     0     0     0
SMALL
USER_CHARGES

@<TRIPOS>ATOM
      1 C1         -0.2972    1.7480    0.5086 C.3       1 <0>        -0.1480
      2 C2         -0.1381    0.2435    0.2801 C.3       1 <0>        -0.0463
      3 H1          0.3083    0.0699   -0.6990 H         1 <0>         0.1176
      4 C3         -1.4900   -0.4196    0.3406 C.2       1 <0>         0.3914
      5 N1         -2.4502    0.1309    1.0068 N.2       1 <0>        -0.4138
      6 O1         -3.7205   -0.4921    1.0636 O.3       1 <0>        -0.4252
      7 N2         -1.7019   -1.6124   -0.3144 N.pl3     1 <0>        -0.8635
      8 C4          0.7535   -0.3353    1.3484 C.2       1 <0>         0.5191
      9 O2          0.3018   -1.1191    2.1562 O.2       1 <0>        -0.4859
     10 N3          2.0528    0.0182    1.4061 N.am      1 <0>        -0.6029
     11 C5          2.5825    1.0693    0.5267 C.3       1 <0>         0.0975
     12 C6          3.7955    0.5160   -0.2278 C.3       1 <0>        -0.1398
     13 C7          4.8102   -0.0323    0.7781 C.3       1 <0>        -0.1191
     14 C8          4.1752   -1.1740    1.5751 C.3       1 <0>        -0.1222
     15 C9          2.9652   -0.6360    2.3539 C.3       1 <0>         0.1303
     16 H2          3.2984    0.0869    3.0985 H         1 <0>         0.0883
     17 C10         2.2532   -1.7760    3.0355 C.2       1 <0>         0.5324
     18 O3          1.8302   -2.7050    2.3807 O.2       1 <0>        -0.5221
     19 N4          2.0865   -1.7631    4.3729 N.am      1 <0>        -0.7331
     20 C11         1.3944   -2.8712    5.0356 C.3       1 <0>         0.0952
     21 H3          0.6869    2.2135    0.5621 H         1 <0>         0.0763
     22 H4         -0.8607    2.1832   -0.3168 H         1 <0>         0.0758
     23 H5         -0.8313    1.9190    1.4432 H         1 <0>         0.0805
     24 H6         -4.3740   -0.0061    1.5850 H         1 <0>         0.3985
     25 H7         -0.9809   -2.0257   -0.8146 H         1 <0>         0.3955
     26 H8         -2.5721   -2.0392   -0.2755 H         1 <0>         0.4081
     27 H9          1.8149    1.3703   -0.1863 H         1 <0>         0.0993
     28 H10         2.8852    1.9284    1.1253 H         1 <0>         0.0780
     29 H11         3.4752   -0.2846   -0.8945 H         1 <0>         0.0710
     30 H12         4.2559    1.3135   -0.8110 H         1 <0>         0.0817
     31 H13         5.6853   -0.4042    0.2452 H         1 <0>         0.0736
     32 H14         5.1115    0.7629    1.4601 H         1 <0>         0.0680
     33 H15         3.8513   -1.9587    0.8914 H         1 <0>         0.0806
     34 H16         4.9058   -1.5795    2.2751 H         1 <0>         0.0789
     35 H17         2.4248   -1.0200    4.8967 H         1 <0>         0.3966
     36 H18         1.3563   -2.6859    6.1090 H         1 <0>         0.0714
     37 H19         0.3801   -2.9519    4.6446 H         1 <0>         0.0603
     38 H20         1.9318   -3.8004    4.8462 H         1 <0>         0.0559
@<TRIPOS>BOND
     1    1    2 1
     2    1   21 1
     3    1   22 1
     4    1   23 1
     5    2    3 1
     6    2    4 1
     7    2    8 1
     8    4    5 2
     9    4    7 1
    10    5    6 1
    11    6   24 1
    12    7   25 1
    13    7   26 1
    14    8    9 2
    15    8   10 am
    16   10   15 1
    17   10   11 1
    18   11   12 1
    19   11   27 1
    20   11   28 1
    21   12   13 1
    22   12   29 1
    23   12   30 1
    24   13   14 1
    25   13   31 1
    26   13   32 1
    27   14   15 1
    28   14   33 1
    29   14   34 1
    30   15   16 1
    31   15   17 1
    32   17   18 2
    33   17   19 am
    34   19   20 1
    35   19   35 1
    36   20   36 1
    37   20   37 1
    38   20   38 1
@<TRIPOS>MOLECULE
ZINC50306118
   39    40     0     0     0
SMALL
USER_CHARGES

@<TRIPOS>ATOM
      1 C1          0.0056    1.5031    0.0099 C.3       1 <0>        -0.0724
      2 C2          0.0141   -0.0038    0.0017 C.2       1 <0>        -0.0757
      3 C3          0.0254   -0.8059   -1.0959 C.2       1 <0>         0.1600
      4 C4          0.0306   -2.1328   -0.5936 C.2       1 <0>        -0.0585
      5 N1          0.0225   -2.0484    0.7233 N.2       1 <0>        -0.2403
      6 N2          0.0179   -0.8174    1.0900 N.pl3     1 <0>        -0.3665
      7 H1          0.0153   -0.5126    2.0109 H         1 <0>         0.4471
      8 C5          0.0421   -3.3722   -1.3924 C.2       1 <0>         0.6079
      9 O1         -0.0581   -3.3164   -2.6029 O.2       1 <0>        -0.5331
     10 N3          0.1637   -4.5670   -0.7807 N.am      1 <0>        -0.5998
     11 C6          0.1684   -4.6603    0.6856 C.3       1 <0>         0.0673
     12 C7          1.4197   -5.4261    1.1269 C.3       1 <0>        -0.1305
     13 C8          1.4645   -6.7779    0.4110 C.3       1 <0>        -0.1286
     14 C9          1.5435   -6.5540   -1.1009 C.3       1 <0>         0.1409
     15 H2          2.4311   -5.9665   -1.3358 H         1 <0>         0.0871
     16 C10         0.2880   -5.8016   -1.5675 C.3       1 <0>         0.0940
     17 N4          1.6189   -7.8481   -1.7836 N.pl3     1 <0>        -1.1123
     18 S1          2.5253   -8.0063   -3.1604 S.o2      1 <0>         2.6097
     19 O2          2.3517   -9.3603   -3.5552 O.2       1 <0>        -0.9568
     20 O3          2.0947   -6.9454   -4.0020 O.2       1 <0>        -0.9475
     21 C11         4.2362   -7.7255   -2.6270 C.3       1 <0>        -0.6746
     22 N5          0.0307   -0.4063   -2.4403 N.pl3     1 <0>        -0.8527
     23 H3          1.0312    1.8723    0.0130 H         1 <0>         0.0720
     24 H4         -0.5093    1.8684   -0.8787 H         1 <0>         0.0774
     25 H5         -0.5112    1.8587    0.9012 H         1 <0>         0.0696
     26 H6          0.1824   -3.6587    1.1154 H         1 <0>         0.1451
     27 H7         -0.7224   -5.1916    1.0208 H         1 <0>         0.0664
     28 H8          2.3084   -4.8492    0.8711 H         1 <0>         0.0681
     29 H9          1.3870   -5.5861    2.2046 H         1 <0>         0.0823
     30 H10         2.3410   -7.3351    0.7418 H         1 <0>         0.0746
     31 H11         0.5638   -7.3443    0.6476 H         1 <0>         0.0754
     32 H12        -0.5932   -6.4241   -1.4123 H         1 <0>         0.0759
     33 H13         0.3810   -5.5533   -2.6248 H         1 <0>         0.1103
     34 H14         1.1378   -8.6122   -1.4291 H         1 <0>         0.4207
     35 H15         4.5094   -8.4677   -1.8769 H         1 <0>         0.1295
     36 H16         4.9032   -7.8132   -3.4846 H         1 <0>         0.1310
     37 H17         4.3241   -6.7270   -2.1989 H         1 <0>         0.1257
     38 H18         0.0266    0.5370   -2.6659 H         1 <0>         0.3978
     39 H19         0.0385   -1.0734   -3.1445 H         1 <0>         0.4135
@<TRIPOS>BOND
     1    1    2 1
     2    1   23 1
     3    1   24 1
     4    1   25 1
     5    2    6 1
     6    2    3 2
     7    3    4 1
     8    3   22 1
     9    4    5 2
    10    4    8 1
    11    5    6 1
    12    6    7 1
    13    8    9 2
    14    8   10 am
    15   10   16 1
    16   10   11 1
    17   11   12 1
    18   11   26 1
    19   11   27 1
    20   12   13 1
    21   12   28 1
    22   12   29 1
    23   13   14 1
    24   13   30 1
    25   13   31 1
    26   14   15 1
    27   14   16 1
    28   14   17 1
    29   16   32 1
    30   16   33 1
    31   17   18 1
    32   17   34 1
    33   18   19 2
    34   18   20 2
    35   18   21 1
    36   21   35 1
    37   21   36 1
    38   21   37 1
    39   22   38 1
    40   22   39 1
@<TRIPOS>MOLECULE
ZINC61090330
   35    36     0     0     0
SMALL
USER_CHARGES

@<TRIPOS>ATOM
      1 C1         -0.0170    1.4019    0.0098 C.2       1 <0>        -0.0513
      2 C2          1.1636    2.0845    0.0021 C.2       1 <0>        -0.2003
      3 C3          2.3732    1.3703   -0.0132 C.2       1 <0>         0.5081
      4 O1          3.4358    1.9720   -0.0198 O.2       1 <0>        -0.5519
      5 N1          2.3637    0.0240   -0.0204 N.am      1 <0>        -0.4656
      6 C4          1.1898   -0.6638   -0.0133 C.2       1 <0>         0.0261
      7 C5          0.0021   -0.0041    0.0020 C.2       1 <0>         0.1102
      8 N2         -1.2023   -0.7239    0.0101 N.pl3     1 <0>        -0.8796
      9 C6          3.6321   -0.7089   -0.0364 C.3       1 <0>         0.0868
     10 C7          4.0806   -0.9678    1.3788 C.2       1 <0>         0.5259
     11 O2          3.4070   -0.5785    2.3092 O.2       1 <0>        -0.5070
     12 N3          5.2302   -1.6320    1.6105 N.am      1 <0>        -0.6049
     13 C8          6.1445   -2.1530    0.5782 C.3       1 <0>         0.0947
     14 C9          7.5230   -2.2444    1.2789 C.3       1 <0>        -0.1342
     15 C10         7.1171   -2.6933    2.7076 C.3       1 <0>        -0.1243
     16 C11         5.7832   -1.9514    2.9348 C.3       1 <0>         0.1194
     17 H1          5.0920   -2.5940    3.4801 H         1 <0>         0.1030
     18 C12         6.0257   -0.6813    3.7089 C.2       1 <0>         0.5050
     19 O3          5.7642    0.3925    3.2094 O.2       1 <0>        -0.5118
     20 N4          6.5331   -0.7387    4.9561 N.am      1 <0>        -0.8570
     21 H2         -0.9560    1.9352    0.0261 H         1 <0>         0.1369
     22 H3          1.1686    3.1645    0.0075 H         1 <0>         0.1538
     23 H4          1.2022   -1.7437   -0.0199 H         1 <0>         0.1521
     24 H5         -2.0495   -0.2517    0.0211 H         1 <0>         0.4006
     25 H6         -1.1876   -1.6938    0.0048 H         1 <0>         0.3974
     26 H7          3.4965   -1.6585   -0.5541 H         1 <0>         0.1183
     27 H8          4.3870   -0.1173   -0.5543 H         1 <0>         0.1286
     28 H9          5.8208   -3.1400    0.2478 H         1 <0>         0.0789
     29 H10         6.1933   -1.4663   -0.2669 H         1 <0>         0.0827
     30 H11         8.1561   -2.9912    0.7998 H         1 <0>         0.0937
     31 H12         8.0158   -1.2723    1.3001 H         1 <0>         0.0805
     32 H13         6.9734   -3.7731    2.7462 H         1 <0>         0.0928
     33 H14         7.8616   -2.3759    3.4377 H         1 <0>         0.0888
     34 H15         6.7423   -1.5976    5.3556 H         1 <0>         0.3997
     35 H16         6.6892    0.0788    5.4544 H         1 <0>         0.4037
@<TRIPOS>BOND
     1    1    7 1
     2    1    2 2
     3    1   21 1
     4    2    3 1
     5    2   22 1
     6    3    4 2
     7    3    5 am
     8    5    6 1
     9    5    9 1
    10    6    7 2
    11    6   23 1
    12    7    8 1
    13    8   24 1
    14    8   25 1
    15    9   10 1
    16    9   26 1
    17    9   27 1
    18   10   11 2
    19   10   12 am
    20   12   16 1
    21   12   13 1
    22   13   14 1
    23   13   28 1
    24   13   29 1
    25   14   15 1
    26   14   30 1
    27   14   31 1
    28   15   16 1
    29   15   32 1
    30   15   33 1
    31   16   17 1
    32   16   18 1
    33   18   19 2
    34   18   20 am
    35   20   34 1
    36   20   35 1
@<TRIPOS>MOLECULE
ZINC03897446
   33    34     0     0     0
SMALL
USER_CHARGES
2-(3-nitrophenyl)aminotetrahydropyran-3,4,5-triol
@<TRIPOS>ATOM
      1 C1          1.9106   -1.1615    4.7746 C.ar      1 <0>        -0.0690
      2 C2          1.9351   -0.4331    3.6014 C.ar      1 <0>        -0.1384
      3 C3          2.2305   -1.0643    2.3999 C.ar      1 <0>         0.2179
      4 C4          2.5115   -2.4248    2.3844 C.ar      1 <0>        -0.1282
      5 C5          2.4908   -3.1460    3.5618 C.ar      1 <0>         0.0041
      6 C6          2.1908   -2.5154    4.7556 C.ar      1 <0>        -0.1058
      7 N1          2.7906   -4.5952    3.5463 N.pl3     1 <0>         0.0252
      8 O1          3.0553   -5.1512    2.4954 O.2       1 <0>        -0.1573
      9 O2          2.7726   -5.2320    4.5844 O.3       1 <0>        -0.1533
     10 N2          2.2504   -0.3319    1.2108 N.pl3     1 <0>        -0.7197
     11 C7          1.7999    1.0621    1.2015 C.3       1 <0>         0.2899
     12 H1          1.0784    1.2165    2.0038 H         1 <0>         0.0889
     13 C8          1.1421    1.3771   -0.1445 C.3       1 <0>         0.0839
     14 H2          1.8496    1.1839   -0.9508 H         1 <0>         0.0866
     15 C9          0.7281    2.8517   -0.1690 C.3       1 <0>         0.1246
     16 H3         -0.0187    3.0336    0.6039 H         1 <0>         0.0801
     17 C10         1.9616    3.7213    0.0928 C.3       1 <0>         0.0370
     18 H4          1.6665    4.7699    0.1309 H         1 <0>         0.0802
     19 C11         2.5878    3.3158    1.4297 C.3       1 <0>         0.0349
     20 O3          2.9211    1.9266    1.3961 O.3       1 <0>        -0.3840
     21 O4          2.9120    3.5305   -0.9571 O.3       1 <0>        -0.5435
     22 O5          0.1796    3.1730   -1.4488 O.3       1 <0>        -0.5394
     23 O6         -0.0133    0.5538   -0.3156 O.3       1 <0>        -0.5445
     24 H5          1.6770   -0.6721    5.7086 H         1 <0>         0.1495
     25 H6          1.7206    0.6253    3.6175 H         1 <0>         0.1384
     26 H7          2.7455   -2.9179    1.4525 H         1 <0>         0.1537
     27 H8          2.1750   -3.0818    5.6750 H         1 <0>         0.1531
     28 H9          2.5626   -0.7462    0.3912 H         1 <0>         0.4105
     29 H10         3.4905    3.9022    1.6009 H         1 <0>         0.1112
     30 H11         1.8765    3.4997    2.2349 H         1 <0>         0.0678
     31 H12         3.7200    4.0519   -0.8558 H         1 <0>         0.3821
     32 H13        -0.1043    4.0933   -1.5352 H         1 <0>         0.3819
     33 H14         0.1752   -0.3946   -0.3101 H         1 <0>         0.3816
@<TRIPOS>BOND
     1    1    6 ar
     2    1    2 ar
     3    1   24 1
     4    2    3 ar
     5    2   25 1
     6    3    4 ar
     7    3   10 1
     8    4    5 ar
     9    4   26 1
    10    5    6 ar
    11    5    7 1
    12    6   27 1
    13    7    8 2
    14    7    9 1
    15   10   11 1
    16   10   28 1
    17   11   12 1
    18   11   20 1
    19   11   13 1
    20   13   14 1
    21   13   15 1
    22   13   23 1
    23   15   16 1
    24   15   17 1
    25   15   22 1
    26   17   18 1
    27   17   19 1
    28   17   21 1
    29   19   20 1
    30   19   29 1
    31   19   30 1
    32   21   31 1
    33   22   32 1
    34   23   33 1
@<TRIPOS>MOLECULE
ZINC09360180
   29    30     0     0     0
SMALL
USER_CHARGES

@<TRIPOS>ATOM
      1 C1          0.0749    1.3992    0.7643 C.ar      1 <0>        -0.0917
      2 C2          1.2249    2.1058    0.4599 C.ar      1 <0>        -0.1252
      3 C3          2.4074    1.4358    0.2232 C.ar      1 <0>        -0.0543
      4 C4          2.4420    0.0421    0.2914 C.ar      1 <0>        -0.1241
      5 C5          1.2783   -0.6645    0.5989 C.ar      1 <0>        -0.0873
      6 C6          0.1023    0.0177    0.8334 C.ar      1 <0>        -0.1254
      7 C7          3.7056   -0.6824    0.0384 C.2       1 <0>         0.5569
      8 O1          4.7174   -0.0644   -0.2296 O.2       1 <0>        -0.5082
      9 N1          3.7357   -2.0282    0.1050 N.am      1 <0>        -0.5372
     10 N2          4.9332   -2.7148   -0.1347 N.pl3     1 <0>        -0.4463
     11 C8          4.9633   -4.0598   -0.0682 C.2       1 <0>         0.3019
     12 C9          6.1689   -4.7328   -0.1884 C.2       1 <0>        -0.4089
     13 C10         6.2223   -6.2006   -0.3157 C.2       1 <0>         0.5796
     14 N3          7.4372   -6.7790   -0.4284 N.am      1 <0>        -0.6487
     15 C11         8.5577   -6.0421   -0.4241 C.2       1 <0>         0.5564
     16 N4          8.5660   -4.7168   -0.3116 N.2       1 <0>        -0.5987
     17 C12         7.4511   -4.0147   -0.2009 C.2       1 <0>         0.5112
     18 O2          7.4900   -2.6694   -0.0952 O.3       1 <0>        -0.6221
     19 S1         10.0592   -6.8514   -0.5707 S.2       1 <0>        -0.6980
     20 O3          5.2051   -6.8689   -0.3188 O.2       1 <0>        -0.5480
     21 H1         -0.8473    1.9287    0.9531 H         1 <0>         0.1290
     22 H2          1.1966    3.1841    0.4071 H         1 <0>         0.1328
     23 H3          3.3043    1.9885   -0.0146 H         1 <0>         0.1404
     24 H4          1.2983   -1.7430    0.6528 H         1 <0>         0.1268
     25 H5         -0.7988   -0.5279    1.0715 H         1 <0>         0.1316
     26 H6          2.9283   -2.5214    0.3188 H         1 <0>         0.4215
     27 H7          5.7406   -2.2216   -0.3486 H         1 <0>         0.4547
     28 H8          4.0479   -4.6138    0.0788 H         1 <0>         0.1645
     29 H9          7.5006   -7.7432   -0.5135 H         1 <0>         0.4169
@<TRIPOS>BOND
     1    1    6 ar
     2    1    2 ar
     3    1   21 1
     4    2    3 ar
     5    2   22 1
     6    3    4 ar
     7    3   23 1
     8    4    5 ar
     9    4    7 1
    10    5    6 ar
    11    5   24 1
    12    6   25 1
    13    7    8 2
    14    7    9 am
    15    9   10 1
    16    9   26 1
    17   10   11 1
    18   10   27 1
    19   11   12 2
    20   11   28 1
    21   12   17 1
    22   12   13 1
    23   13   14 am
    24   13   20 2
    25   14   15 1
    26   14   29 1
    27   15   16 1
    28   15   19 2
    29   16   17 2
    30   17   18 1
@<TRIPOS>MOLECULE
ZINC37730761
   33    34     0     0     0
SMALL
USER_CHARGES

@<TRIPOS>ATOM
      1 C1         -0.0184    1.5028    0.0103 C.3       1 <0>        -0.1153
      2 C2          0.0021   -0.0041    0.0020 C.2       1 <0>         0.2073
      3 C3          0.0079   -0.7958   -1.0953 C.2       1 <0>        -0.7729
      4 C4          0.0284   -2.1267   -0.6656 C.2       1 <0>         0.1293
      5 N1          0.0347   -2.1338    0.6427 N.2       1 <0>        -0.3014
      6 N2          0.0237   -0.8054    1.0876 N.pl3     1 <0>        -0.4732
      7 H1          0.0286   -0.5133    2.0125 H         1 <0>         0.4371
      8 S1         -0.0081   -0.2472   -2.7696 S.o2      1 <0>         2.6671
      9 O1          1.0029    0.7451   -2.8815 O.2       1 <0>        -1.0253
     10 O2         -0.0226   -1.4147   -3.5795 O.2       1 <0>        -1.0275
     11 N3         -1.4541    0.5202   -3.0196 N.2       1 <0>        -1.0688
     12 C5         -1.7471    1.0620   -4.2656 C.ar      1 <0>         0.4486
     13 C6         -2.9628    1.7105   -4.4656 C.ar      1 <0>        -0.1795
     14 C7         -3.2481    2.2483   -5.7089 C.ar      1 <0>        -0.0539
     15 C8         -2.3072    2.1216   -6.7188 C.ar      1 <0>        -0.2311
     16 C9         -1.1095    1.4607   -6.4535 C.ar      1 <0>         0.2075
     17 N4         -0.8658    0.9604   -5.2464 N.ar      1 <0>        -0.5764
     18 C10        -0.1303    1.3235   -7.4894 C.1       1 <0>         0.0712
     19 C11         0.6724    1.2111   -8.3387 C.1       1 <0>        -0.3263
     20 C12         1.6789    1.0700   -9.4035 C.3       1 <0>         0.1565
     21 N5          2.8441    0.3425   -8.8827 N.4       1 <0>        -0.6386
     22 H2          1.0042    1.8801    0.0026 H         1 <0>         0.0943
     23 H3         -0.5455    1.8639   -0.8728 H         1 <0>         0.1067
     24 H4         -0.5286    1.8543    0.9071 H         1 <0>         0.0796
     25 H5          0.0370   -2.9981   -1.3036 H         1 <0>         0.1939
     26 H6         -3.6762    1.7929   -3.6590 H         1 <0>         0.1325
     27 H7         -4.1845    2.7556   -5.8884 H         1 <0>         0.1288
     28 H8         -2.5003    2.5301   -7.6997 H         1 <0>         0.1195
     29 H9          1.2491    0.5173  -10.2388 H         1 <0>         0.1463
     30 H10         1.9896    2.0581   -9.7430 H         1 <0>         0.1467
     31 H11         3.5340    0.2459   -9.6126 H         1 <0>         0.4373
     32 H12         3.2419    0.8542   -8.1094 H         1 <0>         0.4408
     33 H13         2.5565   -0.5721   -8.5684 H         1 <0>         0.4391
@<TRIPOS>BOND
     1    1    2 1
     2    1   22 1
     3    1   23 1
     4    1   24 1
     5    2    6 1
     6    2    3 2
     7    3    4 1
     8    3    8 1
     9    4    5 2
    10    4   25 1
    11    5    6 1
    12    6    7 1
    13    8    9 2
    14    8   10 2
    15    8   11 1
    16   11   12 1
    17   12   17 ar
    18   12   13 ar
    19   13   14 ar
    20   13   26 1
    21   14   15 ar
    22   14   27 1
    23   15   16 ar
    24   15   28 1
    25   16   17 ar
    26   16   18 1
    27   18   19 3
    28   19   20 1
    29   20   21 1
    30   20   29 1
    31   20   30 1
    32   21   31 1
    33   21   32 1
    34   21   33 1
@<TRIPOS>MOLECULE
ZINC45817663
   30    32     0     0     0
SMALL
USER_CHARGES

@<TRIPOS>ATOM
      1 C1         -0.0184    1.5028    0.0103 C.3       1 <0>        -0.1148
      2 C2          0.0021   -0.0041    0.0020 C.2       1 <0>         0.4148
      3 N1          0.0048   -0.6133   -1.1439 N.2       1 <0>        -0.5147
      4 C3          0.0228   -1.9686   -1.2302 C.ar      1 <0>         0.1910
      5 C4          0.0389   -2.7303   -0.0340 C.ar      1 <0>        -0.2509
      6 C5          0.0581   -4.1256   -0.0827 C.ar      1 <0>         0.2770
      7 C6          0.0612   -4.7634   -1.3249 C.ar      1 <0>        -0.2508
      8 C7          0.0450   -4.0051   -2.5232 C.ar      1 <0>         0.1904
      9 C8          0.0259   -2.6119   -2.4675 C.ar      1 <0>         0.1072
     10 O1          0.0100   -1.8829   -3.6160 O.3       1 <0>        -0.4552
     11 N2          0.0490   -4.6599   -3.7131 N.2       1 <0>        -0.5137
     12 C9          0.0672   -5.9560   -3.7769 C.2       1 <0>         0.4143
     13 N3          0.0831   -6.7588   -2.6796 N.am      1 <0>        -0.6560
     14 H1          0.0960   -7.7225   -2.7898 H         1 <0>         0.4225
     15 C10         0.0815   -6.2267   -1.4357 C.2       1 <0>         0.5584
     16 O2          0.0964   -6.9351   -0.4456 O.2       1 <0>        -0.4866
     17 C11         0.0704   -6.6047   -5.1371 C.3       1 <0>        -0.1173
     18 O3          0.0740   -4.8517    1.0611 O.3       1 <0>        -0.4570
     19 C12         0.0353   -2.0073    1.2431 C.2       1 <0>         0.5581
     20 O4          0.0490   -2.6018    2.3056 O.2       1 <0>        -0.4866
     21 N4          0.0222   -0.6553    1.1954 N.am      1 <0>        -0.6554
     22 H2          1.0042    1.8801    0.0026 H         1 <0>         0.1035
     23 H3         -0.5455    1.8639   -0.8728 H         1 <0>         0.1087
     24 H4         -0.5286    1.8543    0.9071 H         1 <0>         0.0902
     25 H5          0.0560   -5.8336   -5.9074 H         1 <0>         0.1091
     26 H6          0.9686   -7.2122   -5.2479 H         1 <0>         0.0977
     27 H7         -0.8112   -7.2375   -5.2400 H         1 <0>         0.0977
     28 H8         -0.8047   -5.0747    1.3976 H         1 <0>         0.4068
     29 H9          0.0231   -0.1455    2.0207 H         1 <0>         0.4224
     30 H10         0.8887   -1.6595   -3.9523 H         1 <0>         0.3894
@<TRIPOS>BOND
     1    1    2 1
     2    1   22 1
     3    1   23 1
     4    1   24 1
     5    2   21 1
     6    2    3 2
     7    3    4 1
     8    4    9 ar
     9    4    5 ar
    10    5    6 ar
    11    5   19 1
    12    6    7 ar
    13    6   18 1
    14    7   15 1
    15    7    8 ar
    16    8    9 ar
    17    8   11 1
    18    9   10 1
    19   10   30 1
    20   11   12 2
    21   12   13 1
    22   12   17 1
    23   13   14 1
    24   13   15 am
    25   15   16 2
    26   17   25 1
    27   17   26 1
    28   17   27 1
    29   18   28 1
    30   19   20 2
    31   19   21 am
    32   21   29 1
@<TRIPOS>MOLECULE
ZINC50703186
   29    30     0     0     0
SMALL
USER_CHARGES

@<TRIPOS>ATOM
      1 C1          2.0241    0.5978   -0.2308 C.3       1 <0>        -0.0945
      2 C2          0.8880   -0.3849   -0.1098 C.2       1 <0>         0.0996
      3 C3         -0.0158   -0.6895   -1.0762 C.2       1 <0>        -0.0174
      4 C4         -0.8982   -1.6461   -0.5531 C.2       1 <0>         0.0976
      5 N1         -0.5401   -1.9067    0.6780 N.2       1 <0>        -0.2849
      6 N2          0.5856   -1.1312    0.9839 N.pl3     1 <0>        -0.4713
      7 H1          1.0633   -1.1266    1.8281 H         1 <0>         0.4442
      8 C5         -2.0606   -2.2671   -1.2839 C.3       1 <0>        -0.0735
      9 N3         -0.0597   -0.1425   -2.3717 N.am      1 <0>        -0.6324
     10 C6          0.3496   -0.8747   -3.4266 C.2       1 <0>         0.5878
     11 O1          0.6695   -2.0375   -3.2720 O.2       1 <0>        -0.5179
     12 C7          0.4096   -0.2641   -4.7716 C.ar      1 <0>        -0.0349
     13 C8          0.8292   -1.0249   -5.8704 C.ar      1 <0>        -0.0211
     14 C9          0.8689   -0.4101   -7.1084 C.ar      1 <0>        -0.1870
     15 C10         0.4885    0.9308   -7.1874 C.ar      1 <0>         0.3614
     16 N4          0.1035    1.5758   -6.0917 N.ar      1 <0>        -0.3043
     17 N5          0.0607    1.0054   -4.9426 N.ar      1 <0>        -0.1625
     18 N6          0.5129    1.5880   -8.4065 N.pl3     1 <0>        -0.8281
     19 H2          2.9108    0.0842   -0.6024 H         1 <0>         0.0839
     20 H3          1.7460    1.3909   -0.9250 H         1 <0>         0.0879
     21 H4          2.2371    1.0292    0.7472 H         1 <0>         0.0762
     22 H5         -1.7673   -3.2432   -1.6703 H         1 <0>         0.0811
     23 H6         -2.8998   -2.3849   -0.5983 H         1 <0>         0.0762
     24 H7         -2.3556   -1.6223   -2.1118 H         1 <0>         0.0734
     25 H8         -0.3845    0.7616   -2.5057 H         1 <0>         0.4155
     26 H9          1.1134   -2.0603   -5.7541 H         1 <0>         0.1624
     27 H10         1.1851   -0.9511   -7.9880 H         1 <0>         0.1548
     28 H11         0.7944    1.1165   -9.2061 H         1 <0>         0.4146
     29 H12         0.2484    2.5197   -8.4607 H         1 <0>         0.4130
@<TRIPOS>BOND
     1    1    2 1
     2    1   19 1
     3    1   20 1
     4    1   21 1
     5    2    6 1
     6    2    3 2
     7    3    4 1
     8    3    9 1
     9    4    5 2
    10    4    8 1
    11    5    6 1
    12    6    7 1
    13    8   22 1
    14    8   23 1
    15    8   24 1
    16    9   10 am
    17    9   25 1
    18   10   11 2
    19   10   12 1
    20   12   17 ar
    21   12   13 ar
    22   13   14 ar
    23   13   26 1
    24   14   15 ar
    25   14   27 1
    26   15   16 ar
    27   15   18 1
    28   16   17 ar
    29   18   28 1
    30   18   29 1
@<TRIPOS>MOLECULE
ZINC66740753
   35    38     0     0     0
SMALL
USER_CHARGES

@<TRIPOS>ATOM
      1 C1         -0.0184    1.5028    0.0103 C.3       1 <0>        -0.0763
      2 C2          0.0021   -0.0041    0.0020 C.2       1 <0>        -0.0190
      3 C3          0.0080   -0.7950   -1.0753 C.2       1 <0>         0.0966
      4 C4          0.0226   -2.1376   -0.5742 C.2       1 <0>        -0.0530
      5 N1          0.0314   -2.0620    0.7234 N.2       1 <0>        -0.1910
      6 N2          0.0241   -0.8242    1.0940 N.pl3     1 <0>        -0.3880
      7 H1          0.0305   -0.5210    2.0154 H         1 <0>         0.4524
      8 C5          0.0170   -3.2690   -1.5218 C.2       1 <0>         0.6256
      9 O1         -0.1406   -4.4144   -1.1451 O.2       1 <0>        -0.5022
     10 N3          0.1953   -2.9710   -2.8307 N.am      1 <0>        -0.7109
     11 C6          0.5507   -1.6406   -3.3066 C.3       1 <0>         0.4505
     12 N4          0.0053   -0.5696   -2.4588 N.pl3     1 <0>        -0.7090
     13 C7          2.0377   -1.4965   -3.4263 C.ar      1 <0>        -0.2134
     14 C8          3.0375   -1.5651   -2.4793 C.ar      1 <0>         0.0149
     15 C9          4.3419   -1.3853   -2.9241 C.ar      1 <0>        -0.2357
     16 C10         4.6209   -1.1486   -4.2600 C.ar      1 <0>         0.1769
     17 C11         3.6156   -1.0782   -5.2186 C.ar      1 <0>        -0.1698
     18 C12         2.3033   -1.2568   -4.7798 C.ar      1 <0>         0.1943
     19 N5          1.1254   -1.2377   -5.5050 N.am      1 <0>        -0.6503
     20 C13         0.0469   -1.4527   -4.7249 C.2       1 <0>         0.5208
     21 O2         -1.1094   -1.4894   -5.0892 O.2       1 <0>        -0.4564
     22 O3          5.9133   -0.9800   -4.6448 O.3       1 <0>        -0.3131
     23 C14         6.9100   -1.0606   -3.6239 C.3       1 <0>         0.0242
     24 H2          1.0042    1.8801    0.0026 H         1 <0>         0.0782
     25 H3         -0.5455    1.8639   -0.8728 H         1 <0>         0.0796
     26 H4         -0.5286    1.8543    0.9071 H         1 <0>         0.0729
     27 H5          0.0810   -3.6787   -3.4841 H         1 <0>         0.4155
     28 H6         -0.3401    0.2533   -2.8389 H         1 <0>         0.4176
     29 H7          2.8168   -1.7499   -1.4384 H         1 <0>         0.1346
     30 H8          5.1542   -1.4315   -2.2140 H         1 <0>         0.1357
     31 H9          3.8411   -0.8927   -6.2584 H         1 <0>         0.1484
     32 H10         1.0806   -1.0866   -6.4621 H         1 <0>         0.4250
     33 H11         6.7250   -0.2915   -2.8740 H         1 <0>         0.0597
     34 H12         6.8702   -2.0433   -3.1541 H         1 <0>         0.0603
     35 H13         7.8951   -0.9084   -4.0651 H         1 <0>         0.1044
@<TRIPOS>BOND
     1    1    2 1
     2    1   24 1
     3    1   25 1
     4    1   26 1
     5    2    6 1
     6    2    3 2
     7    3   12 1
     8    3    4 1
     9    4    5 2
    10    4    8 1
    11    5    6 1
    12    6    7 1
    13    8    9 2
    14    8   10 am
    15   10   11 1
    16   10   27 1
    17   11   20 1
    18   11   12 1
    19   11   13 1
    20   12   28 1
    21   13   18 ar
    22   13   14 ar
    23   14   15 ar
    24   14   29 1
    25   15   16 ar
    26   15   30 1
    27   16   17 ar
    28   16   22 1
    29   17   18 ar
    30   17   31 1
    31   18   19 1
    32   19   20 am
    33   19   32 1
    34   20   21 2
    35   22   23 1
    36   23   33 1
    37   23   34 1
    38   23   35 1
@<TRIPOS>MOLECULE
ZINC34925107
   38    40     0     0     0
SMALL
USER_CHARGES

@<TRIPOS>ATOM
      1 C1          1.0606    1.4052    0.0007 C.3       1 <0>        -0.0759
      2 C2          0.7687   -0.0732   -0.0048 C.2       1 <0>         0.0954
      3 C3          0.5909   -0.8690   -1.1433 C.2       1 <0>        -0.2537
      4 C4          0.3490   -2.1347   -0.7341 C.2       1 <0>         0.1155
      5 N1          0.3733   -2.1388    0.6255 N.pl3     1 <0>        -0.3196
      6 N2          0.6440   -0.8323    1.0525 N.2       1 <0>        -0.2550
      7 C5          0.1705   -3.2452    1.4466 C.ar      1 <0>         0.6777
      8 N3          0.2160   -3.1090    2.7662 N.ar      1 <0>        -0.6213
      9 C6          0.0220   -4.1647    3.5511 C.ar      1 <0>         0.6480
     10 N4         -0.2176   -5.3567    3.0138 N.ar      1 <0>        -0.6276
     11 C7         -0.2630   -5.4920    1.6926 C.ar      1 <0>         0.6563
     12 N5         -0.0737   -4.4339    0.9093 N.ar      1 <0>        -0.6460
     13 N6         -0.5117   -6.7291    1.1335 N.pl3     1 <0>        -0.5241
     14 N7         -0.7112   -7.8147    1.9383 N.3       1 <0>        -0.5866
     15 N8          0.0699   -4.0229    4.9244 N.pl3     1 <0>        -0.6230
     16 C8         -0.0166   -5.1505    5.7474 C.ar      1 <0>         0.1735
     17 C9          0.5985   -6.3369    5.3690 C.ar      1 <0>        -0.0954
     18 C10         0.5119   -7.4486    6.1838 C.ar      1 <0>        -0.0681
     19 C11        -0.1873   -7.3814    7.3759 C.ar      1 <0>        -0.1046
     20 C12        -0.8010   -6.2008    7.7554 C.ar      1 <0>        -0.0713
     21 C13        -0.7128   -5.0844    6.9473 C.ar      1 <0>        -0.1363
     22 Br1        -0.3047   -8.9061    8.4883 Br        1 <0>        -0.0508
     23 C14         0.0976   -3.3250   -1.6234 C.3       1 <0>        -0.0969
     24 H1          2.1389    1.5627   -0.0215 H         1 <0>         0.0837
     25 H2          0.6077    1.8682   -0.8760 H         1 <0>         0.0838
     26 H3          0.6463    1.8540    0.9035 H         1 <0>         0.0779
     27 H4          0.6382   -0.5311   -2.1680 H         1 <0>         0.1619
     28 H5         -0.5448   -6.8277    0.1691 H         1 <0>         0.4228
     29 H6         -1.4658   -7.6497    2.5875 H         1 <0>         0.3516
     30 H7         -0.8806   -8.6448    1.3904 H         1 <0>         0.3649
     31 H8          0.1635   -3.1412    5.3179 H         1 <0>         0.4308
     32 H9          1.1438   -6.3901    4.4383 H         1 <0>         0.1417
     33 H10         0.9900   -8.3714    5.8901 H         1 <0>         0.1366
     34 H11        -1.3461   -6.1512    8.6865 H         1 <0>         0.1371
     35 H12        -1.1887   -4.1620    7.2460 H         1 <0>         0.1352
     36 H13         1.0450   -3.8110   -1.8565 H         1 <0>         0.0822
     37 H14        -0.5560   -4.0304   -1.1102 H         1 <0>         0.0976
     38 H15        -0.3781   -2.9946   -2.5468 H         1 <0>         0.0820
@<TRIPOS>BOND
     1    1    2 1
     2    1   24 1
     3    1   25 1
     4    1   26 1
     5    2    6 2
     6    2    3 1
     7    3    4 2
     8    3   27 1
     9    4    5 1
    10    4   23 1
    11    5    6 1
    12    5    7 1
    13    7   12 ar
    14    7    8 ar
    15    8    9 ar
    16    9   10 ar
    17    9   15 1
    18   10   11 ar
    19   11   12 ar
    20   11   13 1
    21   13   14 1
    22   13   28 1
    23   14   29 1
    24   14   30 1
    25   15   16 1
    26   15   31 1
    27   16   21 ar
    28   16   17 ar
    29   17   18 ar
    30   17   32 1
    31   18   19 ar
    32   18   33 1
    33   19   20 ar
    34   19   22 1
    35   20   21 ar
    36   20   34 1
    37   21   35 1
    38   23   36 1
    39   23   37 1
    40   23   38 1
@<TRIPOS>MOLECULE
ZINC53507814
   45    47     0     0     0
SMALL
USER_CHARGES

@<TRIPOS>ATOM
      1 C1         -0.1913    1.5340   -0.0988 C.3       1 <0>        -0.1597
      2 C2          0.0120    0.0207   -0.0021 C.3       1 <0>         0.1885
      3 H1         -0.9567   -0.4712    0.0860 H         1 <0>         0.1013
      4 C3          0.7148   -0.4719   -1.2409 C.ar      1 <0>        -0.1113
      5 C4          2.0858   -0.3346   -1.3570 C.ar      1 <0>        -0.0930
      6 C5          2.7329   -0.7850   -2.4910 C.ar      1 <0>        -0.1146
      7 C6          2.0050   -1.3763   -3.5153 C.ar      1 <0>         0.1670
      8 C7          0.6283   -1.5127   -3.3956 C.ar      1 <0>        -0.1425
      9 C8         -0.0121   -1.0653   -2.2566 C.ar      1 <0>        -0.0832
     10 N1          2.6576   -1.8333   -4.6658 N.am      1 <0>        -0.6862
     11 C9          3.9071   -2.3310   -4.5792 C.2       1 <0>         0.7047
     12 O1          4.4308   -2.4729   -3.4911 O.2       1 <0>        -0.5731
     13 N2          4.5760   -2.6714   -5.6986 N.am      1 <0>        -0.8608
     14 N3          0.8256   -0.2884    1.1764 N.am      1 <0>        -0.7197
     15 C10         0.2406   -0.4201    2.3834 C.2       1 <0>         0.6149
     16 O2         -0.9642   -0.2821    2.4944 O.2       1 <0>        -0.5244
     17 C11         1.0521   -0.7284    3.5589 C.2       1 <0>        -0.2466
     18 C12         0.6467   -0.9067    4.8674 C.2       1 <0>         0.0102
     19 C13         1.5906   -1.1941    5.8285 C.2       1 <0>        -0.2572
     20 C14         2.9348   -1.2923    5.4228 C.2       1 <0>         0.1033
     21 S1          2.8143   -0.9771    3.6651 S.3       1 <0>         0.1809
     22 N4          3.8413   -1.5685    6.3523 N.2       1 <0>        -0.5565
     23 C15         3.5172   -1.7484    7.6174 C.2       1 <0>         0.4139
     24 S2          1.7466   -1.5207    7.5827 S.3       1 <0>         0.0580
     25 N5          4.3347   -2.0388    8.6905 N.pl3     1 <0>        -0.5568
     26 C16         5.7788   -2.1856    8.4926 C.3       1 <0>         0.0922
     27 C17         3.7584   -2.2001   10.0277 C.3       1 <0>         0.0860
     28 H2          0.7774    2.0259   -0.1868 H         1 <0>         0.0604
     29 H3         -0.7966    1.7640   -0.9756 H         1 <0>         0.0707
     30 H4         -0.6996    1.8903    0.7972 H         1 <0>         0.0669
     31 H5          2.6513    0.1257   -0.5602 H         1 <0>         0.1234
     32 H6          3.8037   -0.6771   -2.5813 H         1 <0>         0.1382
     33 H7          0.0594   -1.9718   -4.1906 H         1 <0>         0.1284
     34 H8         -1.0822   -1.1751   -2.1610 H         1 <0>         0.1310
     35 H9          2.2106   -1.7918   -5.5257 H         1 <0>         0.4083
     36 H10         4.1582   -2.5581   -6.5666 H         1 <0>         0.3995
     37 H11         5.4753   -3.0296   -5.6362 H         1 <0>         0.4200
     38 H12         1.7853   -0.3984    1.0880 H         1 <0>         0.3994
     39 H13        -0.3966   -0.8215    5.1334 H         1 <0>         0.1491
     40 H14         6.2632   -1.2174    8.6192 H         1 <0>         0.0644
     41 H15         6.1761   -2.8891    9.2244 H         1 <0>         0.0822
     42 H16         5.9716   -2.5597    7.4871 H         1 <0>         0.0837
     43 H17         3.4893   -3.2447   10.1838 H         1 <0>         0.0711
     44 H18         4.4895   -1.8974   10.7774 H         1 <0>         0.0922
     45 H19         2.8677   -1.5781   10.1170 H         1 <0>         0.0758
@<TRIPOS>BOND
     1    1    2 1
     2    1   28 1
     3    1   29 1
     4    1   30 1
     5    2    3 1
     6    2    4 1
     7    2   14 1
     8    4    9 ar
     9    4    5 ar
    10    5    6 ar
    11    5   31 1
    12    6    7 ar
    13    6   32 1
    14    7    8 ar
    15    7   10 1
    16    8    9 ar
    17    8   33 1
    18    9   34 1
    19   10   11 am
    20   10   35 1
    21   11   12 2
    22   11   13 am
    23   13   36 1
    24   13   37 1
    25   14   15 am
    26   14   38 1
    27   15   16 2
    28   15   17 1
    29   17   21 1
    30   17   18 2
    31   18   19 1
    32   18   39 1
    33   19   24 1
    34   19   20 2
    35   20   21 1
    36   20   22 1
    37   22   23 2
    38   23   24 1
    39   23   25 1
    40   25   26 1
    41   25   27 1
    42   26   40 1
    43   26   41 1
    44   26   42 1
    45   27   43 1
    46   27   44 1
    47   27   45 1
@<TRIPOS>MOLECULE
ZINC57674776
   37    38     0     0     0
SMALL
USER_CHARGES

@<TRIPOS>ATOM
      1 C1         -0.0161    1.3785    0.0007 C.ar      1 <0>        -0.1192
      2 C2          1.1674    2.0877   -0.0031 C.ar      1 <0>        -0.0361
      3 C3          2.3854    1.4065   -0.0079 C.ar      1 <0>        -0.1332
      4 C4          2.3975    0.0106   -0.0089 C.ar      1 <0>         0.0034
      5 C5          1.2072   -0.6863   -0.0051 C.ar      1 <0>        -0.0552
      6 C6          0.0028   -0.0047   -0.0004 C.ar      1 <0>        -0.0292
      7 N1          1.2180   -2.1664   -0.0061 N.pl3     1 <0>         0.0311
      8 O1          2.2694   -2.7632   -0.0102 O.2       1 <0>        -0.1483
      9 O2          0.1755   -2.7786   -0.0027 O.3       1 <0>        -0.1506
     10 C7          3.6575    2.1600   -0.0125 C.2       1 <0>         0.5672
     11 O3          4.7169    1.5640   -0.0167 O.2       1 <0>        -0.5197
     12 N2          3.6425    3.5077   -0.0120 N.am      1 <0>        -0.7134
     13 C8          4.9029    4.2543   -0.0165 C.3       1 <0>         0.1022
     14 C9          4.6110    5.7328   -0.0150 C.2       1 <0>         0.5119
     15 O4          3.4630    6.1243   -0.0105 O.2       1 <0>        -0.5177
     16 N3          5.6256    6.6200   -0.0185 N.am      1 <0>        -0.6591
     17 C10         5.3564    7.9919   -0.1148 C.ar      1 <0>         0.1001
     18 C11         6.2186    8.8205   -0.8205 C.ar      1 <0>        -0.0729
     19 C12         5.9536   10.1732   -0.9158 C.ar      1 <0>        -0.0927
     20 C13         4.8242   10.7044   -0.3052 C.ar      1 <0>         0.2350
     21 C14         3.9617    9.8748    0.4008 C.ar      1 <0>        -0.0929
     22 C15         4.2246    8.5212    0.4907 C.ar      1 <0>        -0.0518
     23 Cl1         2.5506   10.5377    1.1644 Cl        1 <0>        -0.0508
     24 N4          4.5554   12.0754   -0.4011 N.pl3     1 <0>        -0.8609
     25 Cl2         7.0320   11.2091   -1.7976 Cl        1 <0>        -0.0507
     26 H1         -0.9594    1.9044    0.0089 H         1 <0>         0.1580
     27 H2          1.1513    3.1676   -0.0027 H         1 <0>         0.1488
     28 H3          3.3367   -0.5225   -0.0130 H         1 <0>         0.1683
     29 H4         -0.9264   -0.5551    0.0029 H         1 <0>         0.1612
     30 H5          2.7971    3.9833   -0.0087 H         1 <0>         0.4131
     31 H6          5.4808    3.9971    0.8712 H         1 <0>         0.1105
     32 H7          5.4740    3.9977   -0.9088 H         1 <0>         0.1109
     33 H8          6.5421    6.3089    0.0456 H         1 <0>         0.4184
     34 H9          7.0967    8.4076   -1.2947 H         1 <0>         0.1451
     35 H10         3.5519    7.8756    1.0358 H         1 <0>         0.1563
     36 H11         5.1578   12.6545   -0.8938 H         1 <0>         0.4062
     37 H12         3.7669   12.4460    0.0252 H         1 <0>         0.4064
@<TRIPOS>BOND
     1    1    6 ar
     2    1    2 ar
     3    1   26 1
     4    2    3 ar
     5    2   27 1
     6    3    4 ar
     7    3   10 1
     8    4    5 ar
     9    4   28 1
    10    5    6 ar
    11    5    7 1
    12    6   29 1
    13    7    8 2
    14    7    9 1
    15   10   11 2
    16   10   12 am
    17   12   13 1
    18   12   30 1
    19   13   14 1
    20   13   31 1
    21   13   32 1
    22   14   15 2
    23   14   16 am
    24   16   17 1
    25   16   33 1
    26   17   22 ar
    27   17   18 ar
    28   18   19 ar
    29   18   34 1
    30   19   20 ar
    31   19   25 1
    32   20   21 ar
    33   20   24 1
    34   21   22 ar
    35   21   23 1
    36   22   35 1
    37   24   36 1
    38   24   37 1
@<TRIPOS>MOLECULE
ZINC63469956
   58    60     0     0     0
SMALL
USER_CHARGES

@<TRIPOS>ATOM
      1 C1         -0.0169    1.3937    0.0097 C.ar      1 <0>        -0.0060
      2 C2          1.1662    2.0965    0.0022 C.ar      1 <0>        -0.1992
      3 C3          2.3811    1.4169   -0.0131 C.ar      1 <0>         0.2455
      4 C4          2.4034    0.0249   -0.0208 C.ar      1 <0>        -0.2103
      5 C5          1.2237   -0.6836   -0.0138 C.ar      1 <0>        -0.0338
      6 C6          0.0021   -0.0041    0.0020 C.ar      1 <0>        -0.1985
      7 C7         -1.2644   -0.7605    0.0105 C.2       1 <0>         0.5650
      8 O1         -2.3263   -0.1682    0.0243 O.2       1 <0>        -0.5421
      9 N1         -1.2445   -2.1081    0.0031 N.am      1 <0>        -0.7277
     10 C8         -2.5022   -2.8593    0.0116 C.3       1 <0>         0.1458
     11 C9         -2.9903   -3.0206    1.4527 C.3       1 <0>        -0.1291
     12 C10        -4.3038   -3.8051    1.4615 C.3       1 <0>        -0.1180
     13 C11        -4.0774   -5.1857    0.8422 C.3       1 <0>        -0.1224
     14 C12        -3.5894   -5.0244   -0.5989 C.3       1 <0>        -0.1165
     15 C13        -2.2758   -4.2399   -0.6078 C.3       1 <0>        -0.1264
     16 N2          3.5749    2.1299   -0.0211 N.pl3     1 <0>        -0.7300
     17 C14         4.8542    1.4162   -0.0371 C.3       1 <0>         0.1062
     18 C15         5.9850    2.4124   -0.0431 C.2       1 <0>         0.5141
     19 O2          5.7460    3.6009   -0.0348 O.2       1 <0>        -0.4581
     20 N3          7.2622    1.9820   -0.0577 N.am      1 <0>        -0.6891
     21 C16         8.2735    2.8729   -0.0631 C.2       1 <0>         0.6929
     22 O3          8.0338    4.0644   -0.0548 O.2       1 <0>        -0.5253
     23 N4          9.5506    2.4425   -0.0777 N.am      1 <0>        -0.7299
     24 C17        10.6499    3.4109   -0.0835 C.3       1 <0>         0.1542
     25 C18        10.9961    3.8086   -1.5333 C.3       1 <0>        -0.1367
     26 C19        12.5378    3.9574   -1.5285 C.3       1 <0>        -0.1256
     27 C20        12.9895    2.8055   -0.5968 C.3       1 <0>        -0.1249
     28 C21        11.9173    2.7731    0.5119 C.3       1 <0>        -0.1313
     29 H1         -0.9590    1.9215    0.0260 H         1 <0>         0.1368
     30 H2          1.1522    3.1764    0.0078 H         1 <0>         0.1302
     31 H3          3.3474   -0.4995   -0.0326 H         1 <0>         0.1269
     32 H4          1.2416   -1.7634   -0.0204 H         1 <0>         0.1242
     33 H5         -0.3974   -2.5806   -0.0078 H         1 <0>         0.3970
     34 H6         -3.2516   -2.3197   -0.5676 H         1 <0>         0.0887
     35 H7         -2.2409   -3.5601    2.0318 H         1 <0>         0.0627
     36 H8         -3.1515   -2.0370    1.8939 H         1 <0>         0.0678
     37 H9         -4.6515   -3.9200    2.4881 H         1 <0>         0.0650
     38 H10        -5.0531   -3.2655    0.8823 H         1 <0>         0.0648
     39 H11        -3.3280   -5.7253    1.4213 H         1 <0>         0.0624
     40 H12        -5.0132   -5.7446    0.8485 H         1 <0>         0.0641
     41 H13        -3.4281   -6.0080   -1.0401 H         1 <0>         0.0673
     42 H14        -4.3387   -4.4849   -1.1781 H         1 <0>         0.0656
     43 H15        -1.9282   -4.1250   -1.6344 H         1 <0>         0.0687
     44 H16        -1.5265   -4.7795   -0.0286 H         1 <0>         0.0674
     45 H17         3.5606    3.0997   -0.0161 H         1 <0>         0.4154
     46 H18         4.9299    0.7860    0.8490 H         1 <0>         0.1017
     47 H19         4.9126    0.7950   -0.9309 H         1 <0>         0.1017
     48 H20         7.4535    1.0311   -0.0644 H         1 <0>         0.4122
     49 H21         9.7419    1.4916   -0.0844 H         1 <0>         0.3984
     50 H22        10.3716    4.2947    0.4906 H         1 <0>         0.0952
     51 H23        10.6906    3.0253   -2.2270 H         1 <0>         0.0701
     52 H24        10.5222    4.7553   -1.7926 H         1 <0>         0.0730
     53 H25        12.9419    3.8237   -2.5319 H         1 <0>         0.0706
     54 H26        12.8313    4.9237   -1.1182 H         1 <0>         0.0712
     55 H27        13.0060    1.8602   -1.1393 H         1 <0>         0.0676
     56 H28        13.9704    3.0202   -0.1727 H         1 <0>         0.0705
     57 H29        12.2546    3.3478    1.3745 H         1 <0>         0.0782
     58 H30        11.7145    1.7431    0.8052 H         1 <0>         0.0720
@<TRIPOS>BOND
     1    1    6 ar
     2    1    2 ar
     3    1   29 1
     4    2    3 ar
     5    2   30 1
     6    3    4 ar
     7    3   16 1
     8    4    5 ar
     9    4   31 1
    10    5    6 ar
    11    5   32 1
    12    6    7 1
    13    7    8 2
    14    7    9 am
    15    9   10 1
    16    9   33 1
    17   10   15 1
    18   10   11 1
    19   10   34 1
    20   11   12 1
    21   11   35 1
    22   11   36 1
    23   12   13 1
    24   12   37 1
    25   12   38 1
    26   13   14 1
    27   13   39 1
    28   13   40 1
    29   14   15 1
    30   14   41 1
    31   14   42 1
    32   15   43 1
    33   15   44 1
    34   16   17 1
    35   16   45 1
    36   17   18 1
    37   17   46 1
    38   17   47 1
    39   18   19 2
    40   18   20 am
    41   20   21 am
    42   20   48 1
    43   21   22 2
    44   21   23 am
    45   23   24 1
    46   23   49 1
    47   24   28 1
    48   24   25 1
    49   24   50 1
    50   25   26 1
    51   25   51 1
    52   25   52 1
    53   26   27 1
    54   26   53 1
    55   26   54 1
    56   27   28 1
    57   27   55 1
    58   27   56 1
    59   28   57 1
    60   28   58 1
@<TRIPOS>MOLECULE
ZINC67102640
   53    55     0     0     0
SMALL
USER_CHARGES

@<TRIPOS>ATOM
      1 C1         -0.0309    1.7020    1.0989 C.3       1 <0>        -0.1184
      2 C2         -0.0139    0.2030    0.9446 C.ar      1 <0>        -0.0895
      3 C3         -0.0298   -0.3612   -0.3188 C.ar      1 <0>        -0.0887
      4 C4         -0.0144   -1.7363   -0.4693 C.ar      1 <0>        -0.1182
      5 C5          0.0170   -2.5545    0.6413 C.ar      1 <0>        -0.0928
      6 C6          0.0337   -1.9920    1.9184 C.ar      1 <0>        -0.1274
      7 C7          0.0233   -0.6035    2.0630 C.ar      1 <0>        -0.0548
      8 C8          0.0674   -2.8626    3.1128 C.2       1 <0>         0.5656
      9 O1          0.0818   -2.3699    4.2239 O.2       1 <0>        -0.5241
     10 N1          0.0820   -4.2027    2.9697 N.am      1 <0>        -0.5282
     11 N2          0.1139   -5.0277    4.1015 N.am      1 <0>        -0.5257
     12 C9          0.1285   -6.3678    3.9584 C.2       1 <0>         0.7186
     13 O2          0.1562   -7.0838    4.9407 O.2       1 <0>        -0.5624
     14 N3          0.1125   -6.9142    2.7265 N.am      1 <0>        -0.7358
     15 C10         0.2404   -8.3648    2.5668 C.3       1 <0>         0.2462
     16 H1         -0.3042   -8.8677    3.3660 H         1 <0>         0.1108
     17 C11         1.7179   -8.7567    2.6314 C.3       1 <0>        -0.1206
     18 C12         1.8426  -10.2815    2.6085 C.3       1 <0>        -0.0928
     19 C13         3.3199  -10.6712    2.5278 C.3       1 <0>        -0.1453
     20 C14         1.2308  -10.8624    3.8849 C.3       1 <0>        -0.1510
     21 C15        -0.3305   -8.7758    1.2340 C.2       1 <0>         0.2698
     22 N4         -1.4289   -9.5604    1.0653 N.pl3     1 <0>        -0.5893
     23 H2         -1.9731   -9.9467    1.7692 H         1 <0>         0.4246
     24 C16        -1.6258   -9.7044   -0.2935 C.ar      1 <0>         0.0533
     25 C17        -2.5620  -10.3747   -1.0691 C.ar      1 <0>        -0.1127
     26 C18        -2.4767  -10.3174   -2.4439 C.ar      1 <0>        -0.0950
     27 C19        -1.4621   -9.5951   -3.0560 C.ar      1 <0>        -0.1262
     28 C20        -0.5322   -8.9293   -2.3090 C.ar      1 <0>        -0.0609
     29 C21        -0.5990   -8.9729   -0.9139 C.ar      1 <0>         0.0445
     30 N5          0.1520   -8.4273    0.0771 N.2       1 <0>        -0.4711
     31 H3          0.9923    2.0775    1.1122 H         1 <0>         0.0755
     32 H4         -0.5705    2.1472    0.2631 H         1 <0>         0.0708
     33 H5         -0.5267    1.9655    2.0332 H         1 <0>         0.0710
     34 H6         -0.0548    0.2748   -1.1913 H         1 <0>         0.1308
     35 H7         -0.0274   -2.1703   -1.4581 H         1 <0>         0.1334
     36 H8          0.0283   -3.6279    0.5226 H         1 <0>         0.1228
     37 H9          0.0398   -0.1619    3.0484 H         1 <0>         0.1392
     38 H10         0.0704   -4.5959    2.0830 H         1 <0>         0.4196
     39 H11         0.1254   -4.6345    4.9882 H         1 <0>         0.4467
     40 H12         0.0162   -6.3469    1.9456 H         1 <0>         0.3974
     41 H13         2.2432   -8.3363    1.7738 H         1 <0>         0.0828
     42 H14         2.1565   -8.3701    3.5514 H         1 <0>         0.0835
     43 H15         1.3148  -10.6762    1.7403 H         1 <0>         0.0665
     44 H16         3.8477  -10.2765    3.3960 H         1 <0>         0.0572
     45 H17         3.4088  -11.7574    2.5115 H         1 <0>         0.0562
     46 H18         3.7557  -10.2573    1.6185 H         1 <0>         0.0561
     47 H19         1.6926  -10.3949    4.7545 H         1 <0>         0.0624
     48 H20         0.1583  -10.6685    3.8946 H         1 <0>         0.0494
     49 H21         1.4059  -11.9379    3.9148 H         1 <0>         0.0567
     50 H22        -3.3532  -10.9388   -0.5977 H         1 <0>         0.1247
     51 H23        -3.2043  -10.8383   -3.0485 H         1 <0>         0.1324
     52 H24        -1.4069   -9.5593   -4.1340 H         1 <0>         0.1316
     53 H25         0.2534   -8.3706   -2.7958 H         1 <0>         0.1308
@<TRIPOS>BOND
     1    1    2 1
     2    1   31 1
     3    1   32 1
     4    1   33 1
     5    2    7 ar
     6    2    3 ar
     7    3    4 ar
     8    3   34 1
     9    4    5 ar
    10    4   35 1
    11    5    6 ar
    12    5   36 1
    13    6    7 ar
    14    6    8 1
    15    7   37 1
    16    8    9 2
    17    8   10 am
    18   10   11 1
    19   10   38 1
    20   11   12 am
    21   11   39 1
    22   12   13 2
    23   12   14 am
    24   14   15 1
    25   14   40 1
    26   15   16 1
    27   15   17 1
    28   15   21 1
    29   17   18 1
    30   17   41 1
    31   17   42 1
    32   18   19 1
    33   18   20 1
    34   18   43 1
    35   19   44 1
    36   19   45 1
    37   19   46 1
    38   20   47 1
    39   20   48 1
    40   20   49 1
    41   21   30 2
    42   21   22 1
    43   22   23 1
    44   22   24 1
    45   24   29 ar
    46   24   25 ar
    47   25   26 ar
    48   25   50 1
    49   26   27 ar
    50   26   51 1
    51   27   28 ar
    52   27   52 1
    53   28   29 ar
    54   28   53 1
    55   29   30 1
@<TRIPOS>MOLECULE
ZINC12978087
   41    44     0     0     0
SMALL
USER_CHARGES
N'-[(3-oxo-4H-1,4-benzoxazin-6-yl)sulfonyl]-1H-indole-3-carbohydrazide
@<TRIPOS>ATOM
      1 C1         -0.7098    3.7632    0.0304 C.ar      1 <0>        -0.1352
      2 C2          0.6189    4.1630    0.0199 C.ar      1 <0>        -0.0957
      3 C3          1.6325    3.2302    0.0045 C.ar      1 <0>        -0.1252
      4 C4          1.3269    1.8730   -0.0006 C.ar      1 <0>         0.0847
      5 C5         -0.0179    1.4702    0.0101 C.ar      1 <0>        -0.0596
      6 C6         -1.0326    2.4240    0.0300 C.ar      1 <0>        -0.0659
      7 C7          0.0021   -0.0041    0.0020 C.2       1 <0>        -0.2254
      8 C8          1.3149   -0.3727   -0.0125 C.2       1 <0>         0.1139
      9 N1          2.1007    0.7309   -0.0141 N.pl3     1 <0>        -0.5736
     10 H1          3.0706    0.7196   -0.0229 H         1 <0>         0.4232
     11 C9         -1.1627   -0.8994    0.0088 C.2       1 <0>         0.5976
     12 O1         -2.2871   -0.4348    0.0224 O.2       1 <0>        -0.5148
     13 N2         -0.9857   -2.2355   -0.0002 N.am      1 <0>        -0.5144
     14 N3         -2.0965   -3.0893    0.0063 N.pl3     1 <0>        -0.9008
     15 S1         -2.2633   -4.2397   -1.1731 S.o2      1 <0>         2.6987
     16 O2         -3.3914   -5.0266   -0.8162 O.2       1 <0>        -0.9342
     17 O3         -2.1709   -3.5613   -2.4183 O.2       1 <0>        -0.9312
     18 C10        -0.8584   -5.2982   -1.0709 C.ar      1 <0>        -0.6770
     19 C11         0.2766   -5.0101   -1.8063 C.ar      1 <0>        -0.0124
     20 C12         1.3859   -5.8325   -1.7269 C.ar      1 <0>        -0.1255
     21 C13         1.3557   -6.9544   -0.9171 C.ar      1 <0>         0.1392
     22 C14         0.2093   -7.2483   -0.1807 C.ar      1 <0>         0.0765
     23 C15        -0.8962   -6.4176   -0.2598 C.ar      1 <0>        -0.0192
     24 N4          0.1916   -8.3891    0.6343 N.am      1 <0>        -0.6607
     25 C16         1.3603   -8.9952    0.9374 C.2       1 <0>         0.4900
     26 O4          1.3669  -10.0006    1.6158 O.2       1 <0>        -0.4978
     27 C17         2.6564   -8.4164    0.4294 C.3       1 <0>         0.0490
     28 O5          2.4357   -7.7761   -0.8300 O.3       1 <0>        -0.2953
     29 H2         -1.4944    4.5053    0.0424 H         1 <0>         0.1280
     30 H3          0.8607    5.2156    0.0234 H         1 <0>         0.1294
     31 H4          2.6634    3.5522   -0.0040 H         1 <0>         0.1239
     32 H5         -2.0675    2.1152    0.0429 H         1 <0>         0.1348
     33 H6          1.6742   -1.3911   -0.0217 H         1 <0>         0.1796
     34 H7         -0.0893   -2.6059   -0.0110 H         1 <0>         0.4148
     35 H8         -2.7678   -3.0065    0.7015 H         1 <0>         0.4312
     36 H9          0.2985   -4.1372   -2.4419 H         1 <0>         0.1569
     37 H10         2.2723   -5.6021   -2.2993 H         1 <0>         0.1550
     38 H11        -1.7850   -6.6432    0.3107 H         1 <0>         0.1545
     39 H12        -0.6469   -8.7381    0.9750 H         1 <0>         0.4218
     40 H13         3.3873   -9.2156    0.3070 H         1 <0>         0.1537
     41 H14         3.0336   -7.6870    1.1462 H         1 <0>         0.1077
@<TRIPOS>BOND
     1    1    6 ar
     2    1    2 ar
     3    1   29 1
     4    2    3 ar
     5    2   30 1
     6    3    4 ar
     7    3   31 1
     8    4    9 1
     9    4    5 ar
    10    5    6 ar
    11    5    7 1
    12    6   32 1
    13    7    8 2
    14    7   11 1
    15    8    9 1
    16    8   33 1
    17    9   10 1
    18   11   12 2
    19   11   13 am
    20   13   14 1
    21   13   34 1
    22   14   15 1
    23   14   35 1
    24   15   16 2
    25   15   17 2
    26   15   18 1
    27   18   23 ar
    28   18   19 ar
    29   19   20 ar
    30   19   36 1
    31   20   21 ar
    32   20   37 1
    33   21   28 1
    34   21   22 ar
    35   22   23 ar
    36   22   24 1
    37   23   38 1
    38   24   25 am
    39   24   39 1
    40   25   26 2
    41   25   27 1
    42   27   28 1
    43   27   40 1
    44   27   41 1
@<TRIPOS>MOLECULE
ZINC12583977
   45    47     0     0     0
SMALL
USER_CHARGES

@<TRIPOS>ATOM
      1 C1          0.0577    1.2663    0.4016 C.3       1 <0>         0.0299
      2 O1          0.0606   -0.1601    0.3156 O.3       1 <0>        -0.3901
      3 C2          0.7058   -0.6706   -0.8527 C.3       1 <0>         0.0460
      4 C3          0.6493   -2.1995   -0.8396 C.3       1 <0>         0.1214
      5 N1         -0.7448   -2.6375   -0.9441 N.am      1 <0>        -0.7218
      6 C4         -1.0392   -3.9527   -0.9521 C.2       1 <0>         0.5585
      7 O2         -0.1476   -4.7758   -0.8726 O.2       1 <0>        -0.5345
      8 C5         -2.4430   -4.3938   -1.0573 C.ar      1 <0>        -0.1436
      9 C6         -3.4686   -3.4489   -1.1545 C.ar      1 <0>        -0.0668
     10 C7         -4.7771   -3.8635   -1.2530 C.ar      1 <0>        -0.1349
     11 C8         -5.0799   -5.2223   -1.2554 C.ar      1 <0>         0.1695
     12 C9         -4.0608   -6.1658   -1.1582 C.ar      1 <0>        -0.1614
     13 C10        -2.7499   -5.7576   -1.0657 C.ar      1 <0>        -0.0338
     14 N2         -6.4031   -5.6380   -1.3545 N.pl3     1 <0>        -1.0547
     15 S1         -6.8139   -6.8487   -2.4071 S.o2      1 <0>         2.6943
     16 O3         -5.9463   -7.9394   -2.1301 O.2       1 <0>        -0.9417
     17 O4         -8.2289   -6.9687   -2.3556 O.2       1 <0>        -0.9414
     18 C11        -6.4148   -6.2869   -4.0287 C.ar      1 <0>        -0.6717
     19 C12        -7.3167   -5.5033   -4.7281 C.ar      1 <0>        -0.0070
     20 C13        -7.0129   -5.0581   -5.9997 C.ar      1 <0>        -0.1236
     21 C14        -5.7994   -5.3976   -6.5782 C.ar      1 <0>         0.1495
     22 C15        -4.8897   -6.1879   -5.8728 C.ar      1 <0>         0.0705
     23 C16        -5.2013   -6.6254   -4.5944 C.ar      1 <0>         0.0043
     24 N3         -3.7802   -6.3582   -6.6975 N.am      1 <0>        -0.6383
     25 H1         -2.9821   -6.8639   -6.4780 H         1 <0>         0.4411
     26 C17        -4.0046   -5.7017   -7.8513 C.2       1 <0>         0.6865
     27 O5         -3.2316   -5.6495   -8.7897 O.2       1 <0>        -0.5414
     28 N4         -5.2144   -5.1122   -7.8096 N.am      1 <0>        -0.6401
     29 H2         -5.6109   -4.5794   -8.5166 H         1 <0>         0.4407
     30 H3          1.0846    1.6315    0.4158 H         1 <0>         0.0440
     31 H4         -0.4636    1.6813   -0.4610 H         1 <0>         0.0427
     32 H5         -0.4500    1.5742    1.3157 H         1 <0>         0.0887
     33 H6          0.1979   -0.2959   -1.7414 H         1 <0>         0.0578
     34 H7          1.7462   -0.3456   -0.8646 H         1 <0>         0.0701
     35 H8          1.2174   -2.5914   -1.6833 H         1 <0>         0.0865
     36 H9          1.0781   -2.5710    0.0911 H         1 <0>         0.0805
     37 H10        -1.4560   -1.9810   -1.0074 H         1 <0>         0.4026
     38 H11        -3.2343   -2.3946   -1.1520 H         1 <0>         0.1311
     39 H12        -5.5699   -3.1340   -1.3281 H         1 <0>         0.1375
     40 H13        -4.2990   -7.2192   -1.1599 H         1 <0>         0.1648
     41 H14        -1.9593   -6.4901   -0.9952 H         1 <0>         0.1457
     42 H15        -7.0854   -5.2189   -0.8072 H         1 <0>         0.4313
     43 H16        -8.2621   -5.2392   -4.2775 H         1 <0>         0.1524
     44 H17        -7.7192   -4.4473   -6.5424 H         1 <0>         0.1458
     45 H18        -4.4984   -7.2333   -4.0441 H         1 <0>         0.1529
@<TRIPOS>BOND
     1    1    2 1
     2    1   30 1
     3    1   31 1
     4    1   32 1
     5    2    3 1
     6    3    4 1
     7    3   33 1
     8    3   34 1
     9    4    5 1
    10    4   35 1
    11    4   36 1
    12    5    6 am
    13    5   37 1
    14    6    7 2
    15    6    8 1
    16    8   13 ar
    17    8    9 ar
    18    9   10 ar
    19    9   38 1
    20   10   11 ar
    21   10   39 1
    22   11   12 ar
    23   11   14 1
    24   12   13 ar
    25   12   40 1
    26   13   41 1
    27   14   15 1
    28   14   42 1
    29   15   16 2
    30   15   17 2
    31   15   18 1
    32   18   23 ar
    33   18   19 ar
    34   19   20 ar
    35   19   43 1
    36   20   21 ar
    37   20   44 1
    38   21   28 1
    39   21   22 ar
    40   22   23 ar
    41   22   24 1
    42   23   45 1
    43   24   25 1
    44   24   26 am
    45   26   27 2
    46   26   28 am
    47   28   29 1
@<TRIPOS>MOLECULE
ZINC47445455
   52    54     0     0     0
SMALL
USER_CHARGES

@<TRIPOS>ATOM
      1 C1         -0.2209    1.2069   -0.1853 C.3       1 <0>        -0.1388
      2 C2         -0.1523   -0.2985   -0.1909 C.2       1 <0>         0.0846
      3 C3         -0.1932   -0.9853   -1.3630 C.2       1 <0>        -0.2417
      4 C4         -0.1280   -2.3906   -1.3575 C.2       1 <0>         0.5573
      5 O1         -0.1653   -2.9993   -2.4139 O.2       1 <0>        -0.5307
      6 N1         -0.0245   -3.0722   -0.2011 N.am      1 <0>        -0.6107
      7 H1          0.0196   -4.0410   -0.2165 H         1 <0>         0.4111
      8 C5          0.0196   -2.4101    0.9962 C.2       1 <0>         0.3488
      9 C6         -0.0386   -1.0149    1.0226 C.2       1 <0>        -0.2644
     10 C7          0.0329   -0.6220    2.3796 C.2       1 <0>         0.1403
     11 N2          0.1307   -1.6977    3.1085 N.2       1 <0>        -0.2707
     12 N3          0.1181   -2.8244    2.2779 N.pl3     1 <0>        -0.3785
     13 C8          0.2091   -4.2172    2.7230 C.3       1 <0>         0.0940
     14 C9          0.0018    0.7944    2.8930 C.3       1 <0>        -0.0865
     15 C10        -0.3088   -0.2415   -2.6685 C.3       1 <0>        -0.0370
     16 C11         1.0874   -0.0138   -3.2512 C.3       1 <0>        -0.1332
     17 C12         0.9718    0.7300   -4.5567 C.2       1 <0>         0.5151
     18 O2         -0.1200    1.0469   -4.9795 O.2       1 <0>        -0.5191
     19 N4          2.0815    1.0431   -5.2545 N.am      1 <0>        -0.6748
     20 C13         1.9836    1.8277   -6.4112 C.ar      1 <0>         0.1109
     21 C14         2.8537    1.6131   -7.4717 C.ar      1 <0>        -0.1038
     22 C15         2.7563    2.3864   -8.6116 C.ar      1 <0>        -0.1258
     23 C16         1.7899    3.3779   -8.6971 C.ar      1 <0>         0.1126
     24 C17         0.9206    3.5932   -7.6376 C.ar      1 <0>        -0.1900
     25 C18         1.0129    2.8165   -6.4996 C.ar      1 <0>        -0.0790
     26 O3          1.6949    4.1393   -9.8196 O.3       1 <0>        -0.2901
     27 C19         0.6768    5.1419   -9.8392 C.3       1 <0>         0.0390
     28 C20         0.7233    5.8794  -11.1526 C.2       1 <0>         0.5194
     29 O4          1.5471    5.5763  -11.9894 O.2       1 <0>        -0.5172
     30 N5         -0.1507    6.8757  -11.3973 N.am      1 <0>        -0.8505
     31 H2          0.7867    1.6168   -0.2553 H         1 <0>         0.0873
     32 H3         -0.8113    1.5469   -1.0361 H         1 <0>         0.0853
     33 H4         -0.6876    1.5459    0.7396 H         1 <0>         0.0821
     34 H5          1.2564   -4.5160    2.7697 H         1 <0>         0.0821
     35 H6         -0.2405   -4.3130    3.7113 H         1 <0>         0.1021
     36 H7         -0.3207   -4.8590    2.0190 H         1 <0>         0.0860
     37 H8         -1.0300    1.0890    3.0844 H         1 <0>         0.0882
     38 H9          0.5754    0.8584    3.8177 H         1 <0>         0.0824
     39 H10         0.4377    1.4605    2.1483 H         1 <0>         0.0892
     40 H11        -0.9038   -0.8274   -3.3690 H         1 <0>         0.0861
     41 H12        -0.7922    0.7203   -2.4971 H         1 <0>         0.0861
     42 H13         1.6824    0.5721   -2.5507 H         1 <0>         0.0963
     43 H14         1.5708   -0.9756   -3.4226 H         1 <0>         0.0986
     44 H15         2.9480    0.7253   -4.9560 H         1 <0>         0.4113
     45 H16         3.6066    0.8417   -7.4051 H         1 <0>         0.1344
     46 H17         3.4330    2.2195   -9.4366 H         1 <0>         0.1377
     47 H18         0.1689    4.3658   -7.7045 H         1 <0>         0.1310
     48 H19         0.3329    2.9810   -5.6768 H         1 <0>         0.1389
     49 H20        -0.2991    4.6710   -9.7213 H         1 <0>         0.0955
     50 H21         0.8425    5.8441   -9.0222 H         1 <0>         0.0952
     51 H22        -0.8096    7.1182  -10.7280 H         1 <0>         0.4037
     52 H23        -0.1208    7.3504  -12.2426 H         1 <0>         0.4099
@<TRIPOS>BOND
     1    1    2 1
     2    1   31 1
     3    1   32 1
     4    1   33 1
     5    2    9 1
     6    2    3 2
     7    3    4 1
     8    3   15 1
     9    4    5 2
    10    4    6 am
    11    6    7 1
    12    6    8 1
    13    8   12 1
    14    8    9 2
    15    9   10 1
    16   10   11 2
    17   10   14 1
    18   11   12 1
    19   12   13 1
    20   13   34 1
    21   13   35 1
    22   13   36 1
    23   14   37 1
    24   14   38 1
    25   14   39 1
    26   15   16 1
    27   15   40 1
    28   15   41 1
    29   16   17 1
    30   16   42 1
    31   16   43 1
    32   17   18 2
    33   17   19 am
    34   19   20 1
    35   19   44 1
    36   20   25 ar
    37   20   21 ar
    38   21   22 ar
    39   21   45 1
    40   22   23 ar
    41   22   46 1
    42   23   24 ar
    43   23   26 1
    44   24   25 ar
    45   24   47 1
    46   25   48 1
    47   26   27 1
    48   27   28 1
    49   27   49 1
    50   27   50 1
    51   28   29 2
    52   28   30 am
    53   30   51 1
    54   30   52 1
@<TRIPOS>MOLECULE
ZINC62162090
   46    48     0     0     0
SMALL
USER_CHARGES

@<TRIPOS>ATOM
      1 C1          1.1993   -0.5687    0.5936 C.3       1 <0>         0.0952
      2 N1          0.0001   -0.0013   -0.0279 N.pl3     1 <0>        -0.6390
      3 C2          0.0591    1.3167   -0.6649 C.3       1 <0>         0.0914
      4 C3         -1.2011   -0.7180   -0.0133 C.ar      1 <0>         0.2057
      5 C4         -2.3366   -0.1826   -0.6075 C.ar      1 <0>        -0.1806
      6 C5         -3.5221   -0.8901   -0.5929 C.ar      1 <0>        -0.0671
      7 C6         -3.5794   -2.1365    0.0162 C.ar      1 <0>         0.0764
      8 C7         -2.4445   -2.6718    0.6107 C.ar      1 <0>        -0.0900
      9 C8         -1.2571   -1.9675    0.5905 C.ar      1 <0>        -0.1791
     10 N2         -4.7830   -2.8543    0.0313 N.am      1 <0>        -0.6643
     11 C9         -5.9563   -2.2003    0.1417 C.2       1 <0>         0.5118
     12 O1         -5.9768   -0.9876    0.1436 O.2       1 <0>        -0.5133
     13 C10        -7.2428   -2.9759    0.2629 C.3       1 <0>         0.0978
     14 N3         -8.3673   -2.0429    0.3687 N.pl3     1 <0>        -1.1055
     15 S1         -9.9160   -2.5836    0.1417 S.o2      1 <0>         2.7043
     16 O2        -10.7694   -1.4638    0.3338 O.2       1 <0>        -0.9468
     17 O3         -9.9100   -3.3393   -1.0617 O.2       1 <0>        -0.9478
     18 C11       -10.2690   -3.7153    1.4453 C.ar      1 <0>        -0.6739
     19 C12        -9.9876   -5.0613    1.2847 C.ar      1 <0>        -0.0137
     20 C13       -10.2607   -5.9559    2.3007 C.ar      1 <0>        -0.1229
     21 C14       -10.8191   -5.5040    3.4867 C.ar      1 <0>         0.1470
     22 C15       -11.1030   -4.1465    3.6486 C.ar      1 <0>         0.0691
     23 C16       -10.8200   -3.2550    2.6250 C.ar      1 <0>         0.0035
     24 N4        -11.6478   -3.9983    4.9220 N.am      1 <0>        -0.6391
     25 H1        -11.9442   -3.1644    5.3190 H         1 <0>         0.4409
     26 C17       -11.6932   -5.2099    5.5075 C.2       1 <0>         0.6862
     27 O4        -12.1160   -5.4318    6.6268 O.2       1 <0>        -0.5419
     28 N5        -11.2002   -6.1386    4.6665 N.am      1 <0>        -0.6401
     29 H2        -11.1236   -7.0878    4.8509 H         1 <0>         0.4407
     30 H3          2.0300    0.1283    0.4836 H         1 <0>         0.0734
     31 H4          1.0108   -0.7451    1.6526 H         1 <0>         0.0537
     32 H5          1.4492   -1.5116    0.1071 H         1 <0>         0.0543
     33 H6          0.3268    1.2010   -1.7151 H         1 <0>         0.0489
     34 H7         -0.9147    1.8006   -0.5893 H         1 <0>         0.0692
     35 H8          0.8089    1.9290   -0.1640 H         1 <0>         0.0670
     36 H9         -2.2923    0.7872   -1.0806 H         1 <0>         0.1261
     37 H10        -4.4051   -0.4738   -1.0549 H         1 <0>         0.1388
     38 H11        -2.4894   -3.6410    1.0850 H         1 <0>         0.1252
     39 H12        -0.3731   -2.3861    1.0484 H         1 <0>         0.1252
     40 H13        -4.7717   -3.8218   -0.0377 H         1 <0>         0.4115
     41 H14        -7.3731   -3.6035   -0.6187 H         1 <0>         0.1164
     42 H15        -7.2062   -3.6034    1.1534 H         1 <0>         0.1022
     43 H16        -8.2047   -1.1084    0.5717 H         1 <0>         0.4308
     44 H17        -9.5529   -5.4132    0.3607 H         1 <0>         0.1543
     45 H18       -10.0401   -7.0053    2.1716 H         1 <0>         0.1457
     46 H19       -11.0341   -2.2036    2.7484 H         1 <0>         0.1522
@<TRIPOS>BOND
     1    1    2 1
     2    1   30 1
     3    1   31 1
     4    1   32 1
     5    2    3 1
     6    2    4 1
     7    3   33 1
     8    3   34 1
     9    3   35 1
    10    4    9 ar
    11    4    5 ar
    12    5    6 ar
    13    5   36 1
    14    6    7 ar
    15    6   37 1
    16    7    8 ar
    17    7   10 1
    18    8    9 ar
    19    8   38 1
    20    9   39 1
    21   10   11 am
    22   10   40 1
    23   11   12 2
    24   11   13 1
    25   13   14 1
    26   13   41 1
    27   13   42 1
    28   14   15 1
    29   14   43 1
    30   15   16 2
    31   15   17 2
    32   15   18 1
    33   18   23 ar
    34   18   19 ar
    35   19   20 ar
    36   19   44 1
    37   20   21 ar
    38   20   45 1
    39   21   28 1
    40   21   22 ar
    41   22   23 ar
    42   22   24 1
    43   23   46 1
    44   24   25 1
    45   24   26 am
    46   26   27 2
    47   26   28 am
    48   28   29 1
@<TRIPOS>MOLECULE
ZINC67102155
   46    48     0     0     0
SMALL
USER_CHARGES

@<TRIPOS>ATOM
      1 C1         -0.0386    1.5034    0.0115 C.3       1 <0>        -0.1108
      2 C2         -0.0235   -0.0035    0.0031 C.2       1 <0>        -0.0134
      3 C3         -0.0293   -0.7280   -1.1647 C.2       1 <0>        -0.1863
      4 C4         -0.0144   -2.0823   -1.1003 C.2       1 <0>        -0.2056
      5 S1          0.0080   -2.4160    0.5461 S.3       1 <0>         0.2055
      6 C5          0.0031   -0.7472    1.1731 C.2       1 <0>        -0.2750
      7 C6          0.0211   -0.2824    2.5631 C.2       1 <0>         0.6153
      8 O1          0.0130    0.9101    2.8062 O.2       1 <0>        -0.5135
      9 N1          0.0466   -1.1756    3.5721 N.am      1 <0>        -0.5289
     10 N2          0.0638   -0.7314    4.9007 N.am      1 <0>        -0.5223
     11 C7          0.0893   -1.6246    5.9096 C.2       1 <0>         0.7201
     12 O2          0.1042   -1.2390    7.0627 O.2       1 <0>        -0.5643
     13 N3          0.0982   -2.9452    5.6405 N.am      1 <0>        -0.7354
     14 C8          0.1259   -3.9161    6.7372 C.3       1 <0>         0.1194
     15 C9          0.1308   -5.3129    6.1715 C.2       1 <0>         0.5126
     16 O3          0.1129   -5.4808    4.9704 O.2       1 <0>        -0.5173
     17 N4          0.1551   -6.3754    7.0003 N.am      1 <0>        -0.6641
     18 C10         0.0621   -7.6717    6.4794 C.ar      1 <0>         0.1299
     19 C11        -0.6195   -8.6558    7.1836 C.ar      1 <0>        -0.1137
     20 C12        -0.7111   -9.9337    6.6700 C.ar      1 <0>        -0.1002
     21 C13        -0.1218  -10.2353    5.4494 C.ar      1 <0>         0.1503
     22 C14         0.5597   -9.2515    4.7453 C.ar      1 <0>        -0.1229
     23 C15         0.6465   -7.9721    5.2558 C.ar      1 <0>        -0.0901
     24 N5         -0.2146  -11.5341    4.9278 N.pl3     1 <0>        -0.3233
     25 C16         0.3148  -11.9621    3.7597 C.2       1 <0>         0.0519
     26 C17         0.0038  -13.2722    3.6222 C.2       1 <0>        -0.2601
     27 C18        -0.7399  -13.6582    4.7424 C.2       1 <0>         0.0573
     28 N6         -0.8669  -12.6189    5.5280 N.2       1 <0>        -0.2916
     29 H1          0.9852    1.8771   -0.0032 H         1 <0>         0.0794
     30 H2         -0.5705    1.8663   -0.8679 H         1 <0>         0.0695
     31 H3         -0.5414    1.8567    0.9118 H         1 <0>         0.0898
     32 H4         -0.0459   -0.2255   -2.1206 H         1 <0>         0.1430
     33 H5         -0.0168   -2.7856   -1.9198 H         1 <0>         0.1930
     34 H6          0.0531   -2.1260    3.3784 H         1 <0>         0.4198
     35 H7          0.0573    0.2191    5.0944 H         1 <0>         0.4482
     36 H8          0.0863   -3.2527    4.7206 H         1 <0>         0.4034
     37 H9          1.0243   -3.7631    7.3353 H         1 <0>         0.1099
     38 H10        -0.7554   -3.7811    7.3643 H         1 <0>         0.1102
     39 H11         0.2370   -6.2421    7.9575 H         1 <0>         0.4183
     40 H12        -1.0776   -8.4213    8.1331 H         1 <0>         0.1385
     41 H13        -1.2408  -10.6991    7.2177 H         1 <0>         0.1437
     42 H14         1.0179   -9.4863    3.7959 H         1 <0>         0.1350
     43 H15         1.1727   -7.2058    4.7060 H         1 <0>         0.1502
     44 H16         0.8831  -11.3657    3.0614 H         1 <0>         0.1782
     45 H17         0.2809  -13.9073    2.7938 H         1 <0>         0.1554
     46 H18        -1.1371  -14.6450    4.9291 H         1 <0>         0.1911
@<TRIPOS>BOND
     1    1    2 1
     2    1   29 1
     3    1   30 1
     4    1   31 1
     5    2    6 2
     6    2    3 1
     7    3    4 2
     8    3   32 1
     9    4    5 1
    10    4   33 1
    11    5    6 1
    12    6    7 1
    13    7    8 2
    14    7    9 am
    15    9   10 1
    16    9   34 1
    17   10   11 am
    18   10   35 1
    19   11   12 2
    20   11   13 am
    21   13   14 1
    22   13   36 1
    23   14   15 1
    24   14   37 1
    25   14   38 1
    26   15   16 2
    27   15   17 am
    28   17   18 1
    29   17   39 1
    30   18   23 ar
    31   18   19 ar
    32   19   20 ar
    33   19   40 1
    34   20   21 ar
    35   20   41 1
    36   21   22 ar
    37   21   24 1
    38   22   23 ar
    39   22   42 1
    40   23   43 1
    41   24   28 1
    42   24   25 1
    43   25   26 2
    44   25   44 1
    45   26   27 1
    46   26   45 1
    47   27   28 2
    48   27   46 1
@<TRIPOS>MOLECULE
ZINC15553208
   48    50     0     0     0
SMALL
USER_CHARGES
N-[(4,6-diamino-1,3,5-triazin-2-yl)methyl]-N-(4-methoxyphenyl)-4-methyl-benzenesulfonamide
@<TRIPOS>ATOM
      1 C1          2.9237    2.2925   -5.9656 C.3       1 <0>        -0.1269
      2 C2          2.5515    2.2834   -4.5053 C.ar      1 <0>        -0.0251
      3 C3          1.8893    3.3644   -3.9541 C.ar      1 <0>        -0.1392
      4 C4          1.5480    3.3561   -2.6146 C.ar      1 <0>        -0.0188
      5 C5          1.8679    2.2664   -1.8265 C.ar      1 <0>        -0.6850
      6 C6          2.5344    1.1874   -2.3767 C.ar      1 <0>        -0.0135
      7 C7          2.8719    1.1939   -3.7172 C.ar      1 <0>        -0.1398
      8 S1          1.4328    2.2558   -0.1192 S.o2      1 <0>         2.6760
      9 O1          1.1590    3.6035    0.2386 O.2       1 <0>        -0.9426
     10 O2          2.4170    1.4759    0.5460 O.2       1 <0>        -0.9189
     11 N1          0.0036    1.4304    0.0167 N.pl3     1 <0>        -0.9265
     12 C8          0.0121   -0.0193    0.2280 C.3       1 <0>         0.1863
     13 C9         -0.0935   -0.3127    1.7023 C.ar      1 <0>         0.4072
     14 N2          1.0025   -0.4272    2.4317 N.ar      1 <0>        -0.6053
     15 C10         0.9131   -0.6818    3.7352 C.ar      1 <0>         0.6320
     16 N3         -0.2797   -0.8307    4.3008 N.ar      1 <0>        -0.6518
     17 C11        -1.3792   -0.7199    3.5633 C.ar      1 <0>         0.6331
     18 N4         -1.2819   -0.4602    2.2614 N.ar      1 <0>        -0.6277
     19 N5         -2.6205   -0.8742    4.1461 N.pl3     1 <0>        -0.8042
     20 N6          2.0581   -0.7960    4.4969 N.pl3     1 <0>        -0.8018
     21 C12        -1.2124    2.1168   -0.0760 C.ar      1 <0>         0.1193
     22 C13        -1.2795    3.3212   -0.7639 C.ar      1 <0>        -0.1138
     23 C14        -2.4813    3.9951   -0.8598 C.ar      1 <0>        -0.1787
     24 C15        -3.6182    3.4751   -0.2592 C.ar      1 <0>         0.1095
     25 C16        -3.5509    2.2748    0.4325 C.ar      1 <0>        -0.1254
     26 C17        -2.3513    1.5967    0.5246 C.ar      1 <0>        -0.1110
     27 O3         -4.7999    4.1424   -0.3490 O.3       1 <0>        -0.3175
     28 C18        -4.7967    5.3724   -1.0764 C.3       1 <0>         0.0258
     29 H1          3.9154    2.7286   -6.0851 H         1 <0>         0.0811
     30 H2          2.9277    1.2710   -6.3459 H         1 <0>         0.0744
     31 H3          2.1970    2.8844   -6.5221 H         1 <0>         0.0739
     32 H4          1.6390    4.2156   -4.5699 H         1 <0>         0.1348
     33 H5          1.0309    4.2008   -2.1839 H         1 <0>         0.1407
     34 H6          2.7883    0.3380   -1.7600 H         1 <0>         0.1411
     35 H7          3.3889    0.3492   -4.1479 H         1 <0>         0.1355
     36 H8         -0.8339   -0.4674   -0.2932 H         1 <0>         0.1228
     37 H9          0.9409   -0.4375   -0.1601 H         1 <0>         0.1212
     38 H10        -3.4228   -0.7935    3.6069 H         1 <0>         0.4193
     39 H11        -2.6907   -1.0634    5.0948 H         1 <0>         0.4180
     40 H12         1.9923   -0.9851    5.4460 H         1 <0>         0.4174
     41 H13         2.9287   -0.6871    4.0833 H         1 <0>         0.4219
     42 H14        -0.3932    3.7288   -1.2272 H         1 <0>         0.1284
     43 H15        -2.5346    4.9296   -1.3985 H         1 <0>         0.1337
     44 H16        -4.4368    1.8705    0.8996 H         1 <0>         0.1347
     45 H17        -2.2990    0.6621    1.0632 H         1 <0>         0.1740
     46 H18        -5.7992    5.8003   -1.0710 H         1 <0>         0.1000
     47 H19        -4.1015    6.0695   -0.6085 H         1 <0>         0.0558
     48 H20        -4.4870    5.1856   -2.1047 H         1 <0>         0.0554
@<TRIPOS>BOND
     1    1    2 1
     2    1   29 1
     3    1   30 1
     4    1   31 1
     5    2    7 ar
     6    2    3 ar
     7    3    4 ar
     8    3   32 1
     9    4    5 ar
    10    4   33 1
    11    5    6 ar
    12    5    8 1
    13    6    7 ar
    14    6   34 1
    15    7   35 1
    16    8    9 2
    17    8   10 2
    18    8   11 1
    19   11   12 1
    20   11   21 1
    21   12   13 1
    22   12   36 1
    23   12   37 1
    24   13   18 ar
    25   13   14 ar
    26   14   15 ar
    27   15   16 ar
    28   15   20 1
    29   16   17 ar
    30   17   18 ar
    31   17   19 1
    32   19   38 1
    33   19   39 1
    34   20   40 1
    35   20   41 1
    36   21   26 ar
    37   21   22 ar
    38   22   23 ar
    39   22   42 1
    40   23   24 ar
    41   23   43 1
    42   24   25 ar
    43   24   27 1
    44   25   26 ar
    45   25   44 1
    46   26   45 1
    47   27   28 1
    48   28   46 1
    49   28   47 1
    50   28   48 1
@<TRIPOS>MOLECULE
ZINC39558835
   48    50     0     0     0
SMALL
USER_CHARGES

@<TRIPOS>ATOM
      1 C1          0.0089    1.3918    0.0140 C.3       1 <0>         0.0267
      2 O1          0.0198   -0.0370   -0.0001 O.3       1 <0>        -0.3168
      3 C2         -1.1862   -0.6634    0.0085 C.ar      1 <0>         0.1689
      4 C3         -2.3563    0.0830    0.0244 C.ar      1 <0>        -0.2431
      5 C4         -3.5826   -0.5532    0.0333 C.ar      1 <0>        -0.0285
      6 C5         -3.6476   -1.9336    0.0267 C.ar      1 <0>        -0.1389
      7 C6         -2.4807   -2.6842    0.0107 C.ar      1 <0>         0.1838
      8 C7         -1.2488   -2.0480   -0.0044 C.ar      1 <0>        -0.2429
      9 O2         -2.5453   -4.0416    0.0043 O.3       1 <0>        -0.3100
     10 C8         -1.3043   -4.7500   -0.0122 C.3       1 <0>         0.0254
     11 C9         -4.9870   -2.6243    0.0373 C.3       1 <0>        -0.0849
     12 C10        -5.3615   -2.9721    1.4550 C.2       1 <0>         0.5218
     13 O3         -4.6145   -2.6871    2.3669 O.2       1 <0>        -0.5281
     14 N1         -6.5268   -3.5998    1.7095 N.am      1 <0>        -0.7251
     15 C11        -6.8909   -3.9378    3.0877 C.3       1 <0>         0.1031
     16 C12        -8.2303   -4.6285    3.0983 C.2       1 <0>         0.5118
     17 O4         -8.8224   -4.8196    2.0572 O.2       1 <0>        -0.5151
     18 N2         -8.7701   -5.0339    4.2648 N.am      1 <0>        -0.6651
     19 C13       -10.0565   -5.5883    4.2861 C.ar      1 <0>         0.1510
     20 C14       -10.8993   -5.3443    5.3646 C.ar      1 <0>        -0.1269
     21 C15       -12.1679   -5.8876    5.3915 C.ar      1 <0>        -0.0838
     22 C16       -12.6041   -6.6795    4.3399 C.ar      1 <0>         0.0776
     23 C17       -11.7600   -6.9264    3.2553 C.ar      1 <0>         0.1088
     24 C18       -10.4887   -6.3746    3.2287 C.ar      1 <0>        -0.1065
     25 N3        -12.4660   -7.7402    2.3725 N.am      1 <0>        -0.6400
     26 H1        -12.1364   -8.0782    1.5251 H         1 <0>         0.4372
     27 C19       -13.6837   -7.9780    2.8952 C.2       1 <0>         0.6849
     28 O5        -14.5496   -8.6560    2.3742 O.2       1 <0>        -0.5530
     29 N4        -13.7982   -7.3521    4.0816 N.am      1 <0>        -0.6410
     30 H2        -14.5779   -7.3667    4.6584 H         1 <0>         0.4367
     31 H3          1.0337    1.7631    0.0051 H         1 <0>         0.1014
     32 H4         -0.5186    1.7599   -0.8660 H         1 <0>         0.0577
     33 H5         -0.4967    1.7424    0.9138 H         1 <0>         0.0578
     34 H6         -2.3080    1.1619    0.0303 H         1 <0>         0.1307
     35 H7         -4.4920    0.0293    0.0457 H         1 <0>         0.1316
     36 H8         -0.3394   -2.6304   -0.0213 H         1 <0>         0.1369
     37 H9         -0.7433   -4.4793   -0.9066 H         1 <0>         0.0581
     38 H10        -0.7249   -4.4885    0.8733 H         1 <0>         0.0581
     39 H11        -1.4983   -5.8226   -0.0157 H         1 <0>         0.1014
     40 H12        -5.7413   -1.9608   -0.3854 H         1 <0>         0.1037
     41 H13        -4.9304   -3.5359   -0.5575 H         1 <0>         0.1075
     42 H14        -7.1242   -3.8277    0.9802 H         1 <0>         0.4126
     43 H15        -6.1365   -4.6013    3.5105 H         1 <0>         0.1035
     44 H16        -6.9475   -3.0262    3.6826 H         1 <0>         0.1041
     45 H17        -8.2680   -4.9418    5.0896 H         1 <0>         0.4186
     46 H18       -10.5602   -4.7280    6.1841 H         1 <0>         0.1402
     47 H19       -12.8200   -5.6965    6.2309 H         1 <0>         0.1393
     48 H20        -9.8353   -6.5599    2.3890 H         1 <0>         0.1491
@<TRIPOS>BOND
     1    1    2 1
     2    1   31 1
     3    1   32 1
     4    1   33 1
     5    2    3 1
     6    3    8 ar
     7    3    4 ar
     8    4    5 ar
     9    4   34 1
    10    5    6 ar
    11    5   35 1
    12    6    7 ar
    13    6   11 1
    14    7    8 ar
    15    7    9 1
    16    8   36 1
    17    9   10 1
    18   10   37 1
    19   10   38 1
    20   10   39 1
    21   11   12 1
    22   11   40 1
    23   11   41 1
    24   12   13 2
    25   12   14 am
    26   14   15 1
    27   14   42 1
    28   15   16 1
    29   15   43 1
    30   15   44 1
    31   16   17 2
    32   16   18 am
    33   18   19 1
    34   18   45 1
    35   19   24 ar
    36   19   20 ar
    37   20   21 ar
    38   20   46 1
    39   21   22 ar
    40   21   47 1
    41   22   29 1
    42   22   23 ar
    43   23   24 ar
    44   23   25 1
    45   24   48 1
    46   25   26 1
    47   25   27 am
    48   27   28 2
    49   27   29 am
    50   29   30 1
@<TRIPOS>MOLECULE
ZINC56381511
   49    50     0     0     0
SMALL
USER_CHARGES

@<TRIPOS>ATOM
      1 C1         -0.0172    1.4232    0.0686 C.3       1 <0>         0.0218
      2 O1          0.0020   -0.0056    0.0544 O.3       1 <0>        -0.2991
      3 C2         -1.1996   -0.6383    0.0520 C.ar      1 <0>         0.1357
      4 C3         -2.3731    0.1036    0.0574 C.ar      1 <0>        -0.1800
      5 C4         -3.5948   -0.5337    0.0547 C.ar      1 <0>        -0.0768
      6 C5         -3.6546   -1.9294    0.0464 C.ar      1 <0>        -0.1330
      7 C6         -2.4737   -2.6763    0.0410 C.ar      1 <0>        -0.1084
      8 C7         -1.2521   -2.0313    0.0384 C.ar      1 <0>         0.0949
      9 O2         -0.1008   -2.7551    0.0275 O.3       1 <0>        -0.3022
     10 C8         -0.2294   -4.1783    0.0138 C.3       1 <0>         0.0220
     11 C9         -4.9625   -2.6137    0.0439 C.2       1 <0>         0.5704
     12 O3         -5.0131   -3.8285    0.0367 O.2       1 <0>        -0.5264
     13 N1         -6.1007   -1.8919    0.0496 N.am      1 <0>        -0.5283
     14 N2         -7.3421   -2.5413    0.0472 N.am      1 <0>        -0.5245
     15 C10        -8.4802   -1.8195    0.0529 C.2       1 <0>         0.7196
     16 O4         -9.5576   -2.3831    0.0509 O.2       1 <0>        -0.5656
     17 N3         -8.4242   -0.4729    0.0609 N.am      1 <0>        -0.7352
     18 C11        -9.6613    0.3117    0.0671 C.3       1 <0>         0.1198
     19 C12        -9.3246    1.7806    0.0755 C.2       1 <0>         0.5120
     20 O5         -8.1653    2.1370    0.0762 O.2       1 <0>        -0.5176
     21 N4        -10.3117    2.6982    0.0822 N.am      1 <0>        -0.6653
     22 C13       -10.0015    4.0588    0.1875 C.ar      1 <0>         0.1394
     23 C14       -10.8404    4.9099    0.8971 C.ar      1 <0>        -0.1307
     24 C15       -10.5384    6.2543    1.0040 C.ar      1 <0>        -0.0983
     25 C16        -9.4014    6.7604    0.4069 C.ar      1 <0>        -0.1065
     26 C17        -8.5526    5.9139   -0.3074 C.ar      1 <0>         0.0276
     27 C18        -8.8548    4.5565   -0.4111 C.ar      1 <0>        -0.0963
     28 C19        -7.3724    6.4365   -0.9276 C.1       1 <0>        -0.1548
     29 C20        -6.4049    6.8650   -1.4361 C.1       1 <0>        -0.1655
     30 H1          1.0054    1.8004    0.0689 H         1 <0>         0.1053
     31 H2         -0.5388    1.7884   -0.8161 H         1 <0>         0.0594
     32 H3         -0.5330    1.7708    0.9637 H         1 <0>         0.0595
     33 H4         -2.3283    1.1826    0.0642 H         1 <0>         0.1464
     34 H5         -4.5061    0.0458    0.0592 H         1 <0>         0.1303
     35 H6         -2.5158   -3.7555    0.0346 H         1 <0>         0.1528
     36 H7          0.7614   -4.6325    0.0061 H         1 <0>         0.1050
     37 H8         -0.7709   -4.5027    0.9024 H         1 <0>         0.0587
     38 H9         -0.7767   -4.4851   -0.8775 H         1 <0>         0.0587
     39 H10        -6.0603   -0.9227    0.0553 H         1 <0>         0.4207
     40 H11        -7.3824   -3.5104    0.0415 H         1 <0>         0.4474
     41 H12        -7.5647   -0.0233    0.0626 H         1 <0>         0.4028
     42 H13       -10.2444    0.0777   -0.8236 H         1 <0>         0.1094
     43 H14       -10.2423    0.0671    0.9564 H         1 <0>         0.1100
     44 H15       -11.2371    2.4156    0.0140 H         1 <0>         0.4183
     45 H16       -11.7314    4.5195    1.3663 H         1 <0>         0.1320
     46 H17       -11.1944    6.9110    1.5561 H         1 <0>         0.1352
     47 H18        -9.1689    7.8117    0.4923 H         1 <0>         0.1297
     48 H19        -8.1995    3.8960   -0.9595 H         1 <0>         0.1436
     49 H20        -5.5395    7.2481   -1.8909 H         1 <0>         0.2258
@<TRIPOS>BOND
     1    1    2 1
     2    1   30 1
     3    1   31 1
     4    1   32 1
     5    2    3 1
     6    3    8 ar
     7    3    4 ar
     8    4    5 ar
     9    4   33 1
    10    5    6 ar
    11    5   34 1
    12    6    7 ar
    13    6   11 1
    14    7    8 ar
    15    7   35 1
    16    8    9 1
    17    9   10 1
    18   10   36 1
    19   10   37 1
    20   10   38 1
    21   11   12 2
    22   11   13 am
    23   13   14 1
    24   13   39 1
    25   14   15 am
    26   14   40 1
    27   15   16 2
    28   15   17 am
    29   17   18 1
    30   17   41 1
    31   18   19 1
    32   18   42 1
    33   18   43 1
    34   19   20 2
    35   19   21 am
    36   21   22 1
    37   21   44 1
    38   22   27 ar
    39   22   23 ar
    40   23   24 ar
    41   23   45 1
    42   24   25 ar
    43   24   46 1
    44   25   26 ar
    45   25   47 1
    46   26   27 ar
    47   26   28 1
    48   27   48 1
    49   28   29 3
    50   29   49 1
@<TRIPOS>MOLECULE
ZINC63217590
   47    50     0     0     0
SMALL
USER_CHARGES

@<TRIPOS>ATOM
      1 C1         -0.0065    1.4488   -1.3519 C.3       1 <0>        -0.1517
      2 C2          0.0445   -0.0581   -1.0919 C.3       1 <0>        -0.1453
      3 C3          1.0438   -0.7077   -2.0513 C.3       1 <0>         0.1239
      4 N1          1.0926   -2.1505   -1.8023 N.am      1 <0>        -0.6268
      5 C4          2.0403   -2.7110   -0.8250 C.3       1 <0>         0.3609
      6 H1          1.8416   -2.2460    0.1405 H         1 <0>         0.1309
      7 C5          2.0196   -4.2144   -0.6328 C.2       1 <0>        -0.5461
      8 C6          1.1182   -4.9398   -1.3849 C.2       1 <0>         0.5353
      9 O1          1.0613   -6.2800   -1.2493 O.3       1 <0>        -0.6190
     10 N2          0.2823   -4.3123   -2.2656 N.am      1 <0>        -0.6599
     11 C7          0.2677   -2.9880   -2.4589 C.2       1 <0>         0.7165
     12 O2         -0.5176   -2.5237   -3.2622 O.2       1 <0>        -0.5516
     13 C8          2.8788   -4.8405    0.2692 C.2       1 <0>         0.4552
     14 O3          3.5811   -4.1725    1.0039 O.2       1 <0>        -0.5446
     15 C9          2.9372   -6.3450    0.3339 C.3       1 <0>        -0.1184
     16 S1          4.2557   -6.8505    1.4725 S.3       1 <0>        -0.1205
     17 C10         4.1948   -8.6632    1.4375 C.3       1 <0>         0.1832
     18 H2          3.5969   -9.0088    0.5942 H         1 <0>         0.1653
     19 N3          3.6553   -9.1865    2.7023 N.2       1 <0>        -0.0796
     20 N4          4.5169   -9.8873    3.2360 N.2       1 <0>        -0.0727
     21 C11         5.6778   -9.9696    2.5228 C.2       1 <0>         0.3060
     22 N5          5.5500   -9.2234    1.3726 N.pl3     1 <0>        -0.5172
     23 C12         6.7234   -9.3205    0.6706 C.ar      1 <0>         0.1209
     24 C13         7.1810   -8.7993   -0.5337 C.ar      1 <0>        -0.1120
     25 C14         8.4527   -9.0991   -0.9706 C.ar      1 <0>        -0.0794
     26 C15         9.2827   -9.9185   -0.2166 C.ar      1 <0>        -0.1235
     27 C16         8.8541  -10.4416    0.9686 C.ar      1 <0>        -0.0471
     28 C17         7.5656  -10.1522    1.4353 C.ar      1 <0>         0.0548
     29 N6          6.8773  -10.5115    2.5444 N.2       1 <0>        -0.3911
     30 N7          3.3967   -2.3266   -1.2377 N.4       1 <0>        -0.6531
     31 H3          0.9824    1.8787   -1.1925 H         1 <0>         0.0561
     32 H4         -0.3199    1.6296   -2.3801 H         1 <0>         0.0608
     33 H5         -0.7184    1.9115   -0.6684 H         1 <0>         0.0641
     34 H6          0.3579   -0.2390   -0.0637 H         1 <0>         0.0675
     35 H7         -0.9443   -0.4880   -1.2513 H         1 <0>         0.0765
     36 H8          0.7304   -0.5268   -3.0795 H         1 <0>         0.1069
     37 H9          2.0326   -0.2778   -1.8919 H         1 <0>         0.0752
     38 H10        -0.3371   -4.8566   -2.7764 H         1 <0>         0.4258
     39 H11         1.9819   -6.7307    0.6900 H         1 <0>         0.1298
     40 H12         3.1424   -6.7437   -0.6596 H         1 <0>         0.1183
     41 H13         6.5414   -8.1614   -1.1256 H         1 <0>         0.1289
     42 H14         8.8071   -8.6934   -1.9067 H         1 <0>         0.1380
     43 H15        10.2772  -10.1442   -0.5720 H         1 <0>         0.1392
     44 H16         9.5079  -11.0782    1.5463 H         1 <0>         0.1411
     45 H17         3.4955   -1.3243   -1.1768 H         1 <0>         0.4146
     46 H18         4.0709   -2.7685   -0.6308 H         1 <0>         0.4435
     47 H19         3.5556   -2.6230   -2.1890 H         1 <0>         0.4205
@<TRIPOS>BOND
     1    1    2 1
     2    1   31 1
     3    1   32 1
     4    1   33 1
     5    2    3 1
     6    2   34 1
     7    2   35 1
     8    3    4 1
     9    3   36 1
    10    3   37 1
    11    4   11 am
    12    4    5 1
    13    5    6 1
    14    5    7 1
    15    5   30 1
    16    7    8 2
    17    7   13 1
    18    8    9 1
    19    8   10 1
    20   10   11 am
    21   10   38 1
    22   11   12 2
    23   13   14 2
    24   13   15 1
    25   15   16 1
    26   15   39 1
    27   15   40 1
    28   16   17 1
    29   17   18 1
    30   17   22 1
    31   17   19 1
    32   19   20 2
    33   20   21 1
    34   21   29 2
    35   21   22 1
    36   22   23 1
    37   23   28 ar
    38   23   24 ar
    39   24   25 ar
    40   24   41 1
    41   25   26 ar
    42   25   42 1
    43   26   27 ar
    44   26   43 1
    45   27   28 ar
    46   27   44 1
    47   28   29 1
    48   30   45 1
    49   30   46 1
    50   30   47 1
@<TRIPOS>MOLECULE
ZINC67438126
   40    41     0     0     0
SMALL
USER_CHARGES

@<TRIPOS>ATOM
      1 C1         -0.0173    1.4248    0.0099 C.3       1 <0>         0.0194
      2 O1          0.0021   -0.0041    0.0020 O.3       1 <0>        -0.2816
      3 C2          0.6047   -0.6060   -1.0538 C.ar      1 <0>         0.1932
      4 C3          1.1724    0.1597   -2.0614 C.ar      1 <0>        -0.2171
      5 C4          1.7849   -0.4543   -3.1356 C.ar      1 <0>        -0.0445
      6 C5          1.8378   -1.8364   -3.2162 C.ar      1 <0>        -0.1645
      7 C6          1.2794   -2.6125   -2.2240 C.ar      1 <0>        -0.0493
      8 C7          0.6615   -2.0042   -1.1285 C.ar      1 <0>        -0.1722
      9 C8          0.0666   -2.8292   -0.0598 C.2       1 <0>         0.5670
     10 O2         -0.4750   -2.2961    0.8894 O.2       1 <0>        -0.4911
     11 N1          0.1235   -4.1736   -0.1356 N.am      1 <0>        -0.5155
     12 N2         -0.4415   -4.9570    0.8793 N.pl3     1 <0>        -0.9007
     13 S1         -1.5667   -6.1126    0.5039 S.o2      1 <0>         2.6940
     14 O3         -1.8356   -6.8228    1.7050 O.2       1 <0>        -0.9269
     15 O4         -2.5865   -5.4600   -0.2399 O.2       1 <0>        -0.9302
     16 C9         -0.7947   -7.2541   -0.5940 C.ar      1 <0>        -0.7041
     17 C10        -0.8480   -7.0438   -1.9595 C.ar      1 <0>         0.0308
     18 C11        -0.2425   -7.9393   -2.8208 C.ar      1 <0>        -0.1530
     19 C12         0.4169   -9.0451   -2.3168 C.ar      1 <0>         0.0391
     20 C13         0.4710   -9.2548   -0.9518 C.ar      1 <0>        -0.6959
     21 C14        -0.1311   -8.3568   -0.0900 C.ar      1 <0>         0.0839
     22 S2          1.3109  -10.6644   -0.3096 S.o2      1 <0>         2.7006
     23 O5          0.7506  -10.9227    0.9705 O.2       1 <0>        -0.9521
     24 O6          1.3236  -11.6366   -1.3459 O.2       1 <0>        -0.9553
     25 N3          2.8865  -10.2221   -0.0562 N.pl3     1 <0>        -1.2482
     26 H1          1.0053    1.8021    0.0021 H         1 <0>         0.0587
     27 H2         -0.5445    1.7859   -0.8732 H         1 <0>         0.0592
     28 H3         -0.5275    1.7763    0.9067 H         1 <0>         0.1059
     29 H4          1.1349    1.2376   -2.0058 H         1 <0>         0.1392
     30 H5          2.2252    0.1463   -3.9178 H         1 <0>         0.1338
     31 H6          2.3185   -2.3076   -4.0608 H         1 <0>         0.1341
     32 H7          1.3226   -3.6896   -2.2912 H         1 <0>         0.1301
     33 H8          0.5555   -4.5988   -0.8928 H         1 <0>         0.4151
     34 H9         -0.1736   -4.8224    1.8018 H         1 <0>         0.4326
     35 H10        -1.3631   -6.1800   -2.3531 H         1 <0>         0.1541
     36 H11        -0.2847   -7.7754   -3.8874 H         1 <0>         0.1510
     37 H12         0.8895   -9.7452   -2.9899 H         1 <0>         0.1558
     38 H13        -0.0856   -8.5187    0.9768 H         1 <0>         0.1634
     39 H14         3.1761   -9.3197   -0.2627 H         1 <0>         0.4168
     40 H15         3.5197  -10.8655    0.2988 H         1 <0>         0.4245
@<TRIPOS>BOND
     1    1    2 1
     2    1   26 1
     3    1   27 1
     4    1   28 1
     5    2    3 1
     6    3    8 ar
     7    3    4 ar
     8    4    5 ar
     9    4   29 1
    10    5    6 ar
    11    5   30 1
    12    6    7 ar
    13    6   31 1
    14    7    8 ar
    15    7   32 1
    16    8    9 1
    17    9   10 2
    18    9   11 am
    19   11   12 1
    20   11   33 1
    21   12   13 1
    22   12   34 1
    23   13   14 2
    24   13   15 2
    25   13   16 1
    26   16   21 ar
    27   16   17 ar
    28   17   18 ar
    29   17   35 1
    30   18   19 ar
    31   18   36 1
    32   19   20 ar
    33   19   37 1
    34   20   21 ar
    35   20   22 1
    36   21   38 1
    37   22   23 2
    38   22   24 2
    39   22   25 1
    40   25   39 1
    41   25   40 1
@<TRIPOS>MOLECULE
ZINC35764302
   33    34     0     0     0
SMALL
USER_CHARGES

@<TRIPOS>ATOM
      1 C1         -0.0187    1.5258    0.0104 C.3       1 <0>        -0.1826
      2 C2          0.0021   -0.0041    0.0020 C.3       1 <0>         0.0770
      3 H1          0.5293   -0.3651    0.8851 H         1 <0>         0.1540
      4 C3         -1.4117   -0.5257    0.0127 C.ar      1 <0>        -0.0940
      5 C4         -2.1414   -0.5688   -1.1606 C.ar      1 <0>        -0.1457
      6 C5         -3.4383   -1.0473   -1.1508 C.ar      1 <0>        -0.0041
      7 C6         -4.0053   -1.4831    0.0322 C.ar      1 <0>        -0.6517
      8 C7         -3.2753   -1.4408    1.2054 C.ar      1 <0>         0.0005
      9 C8         -1.9770   -0.9663    1.1948 C.ar      1 <0>        -0.1083
     10 S1         -5.6587   -2.0919    0.0450 S.o2      1 <0>         2.6887
     11 O1         -6.1416   -1.9282    1.3713 O.2       1 <0>        -0.9345
     12 O2         -6.3113   -1.5184   -1.0796 O.2       1 <0>        -0.9411
     13 N1         -5.5822   -3.7226   -0.2330 N.pl3     1 <0>        -1.0244
     14 C9         -4.9608   -4.5683    0.7057 C.2       1 <0>        -0.0207
     15 C10        -4.0820   -5.5637    0.4255 C.2       1 <0>         0.0619
     16 N2         -3.7195   -6.1347    1.6050 N.pl3     1 <0>        -0.4696
     17 H2         -3.1006   -6.8734    1.7156 H         1 <0>         0.4494
     18 N3         -4.3980   -5.4665    2.6322 N.2       1 <0>        -0.2647
     19 C11        -5.1355   -4.5275    2.0964 C.2       1 <0>         0.0439
     20 N4          0.6897   -0.4778   -1.2066 N.4       1 <0>        -0.6367
     21 H3          1.0039    1.9031    0.0027 H         1 <0>         0.0909
     22 H4         -0.5459    1.8868   -0.8726 H         1 <0>         0.0855
     23 H5         -0.5289    1.8773    0.9072 H         1 <0>         0.1105
     24 H6         -1.6984   -0.2284   -2.0848 H         1 <0>         0.1318
     25 H7         -4.0086   -1.0803   -2.0673 H         1 <0>         0.1539
     26 H8         -3.7184   -1.7809    2.1297 H         1 <0>         0.1546
     27 H9         -1.4054   -0.9367    2.1106 H         1 <0>         0.1458
     28 H10        -5.9655   -4.0951   -1.0424 H         1 <0>         0.4281
     29 H11        -3.7342   -5.8505   -0.5559 H         1 <0>         0.1848
     30 H12        -5.7720   -3.8400    2.6335 H         1 <0>         0.2048
     31 H13         1.6363   -0.1286   -1.2138 H         1 <0>         0.4409
     32 H14         0.7033   -1.4867   -1.2121 H         1 <0>         0.4385
     33 H15         0.2017   -0.1436   -2.0240 H         1 <0>         0.4324
@<TRIPOS>BOND
     1    1    2 1
     2    1   21 1
     3    1   22 1
     4    1   23 1
     5    2    3 1
     6    2    4 1
     7    2   20 1
     8    4    9 ar
     9    4    5 ar
    10    5    6 ar
    11    5   24 1
    12    6    7 ar
    13    6   25 1
    14    7    8 ar
    15    7   10 1
    16    8    9 ar
    17    8   26 1
    18    9   27 1
    19   10   11 2
    20   10   12 2
    21   10   13 1
    22   13   14 1
    23   13   28 1
    24   14   19 1
    25   14   15 2
    26   15   16 1
    27   15   29 1
    28   16   17 1
    29   16   18 1
    30   18   19 2
    31   19   30 1
    32   20   31 1
    33   20   32 1
    34   20   33 1
@<TRIPOS>MOLECULE
ZINC37626385
   39    39     0     0     0
SMALL
USER_CHARGES

@<TRIPOS>ATOM
      1 C1         -0.0178    1.4608    0.0101 C.3       1 <0>         0.0826
      2 N1          0.0021   -0.0041    0.0020 N.am      1 <0>        -0.7321
      3 C2          0.6044   -0.6754    1.0035 C.2       1 <0>         0.5132
      4 O1          1.1299   -0.0668    1.9115 O.2       1 <0>        -0.5330
      5 C3          0.6248   -2.1822    0.9953 C.3       1 <0>        -0.1106
      6 C4         -0.8111   -2.7116    1.0044 C.3       1 <0>        -0.1287
      7 C5         -0.7868   -4.2427    0.9610 C.3       1 <0>         0.1095
      8 N2          0.0446   -4.7341    2.0683 N.am      1 <0>        -0.5837
      9 C6          1.4140   -4.2197    2.2057 C.3       1 <0>         0.0897
     10 C7          1.3651   -2.6889    2.2352 C.3       1 <0>        -0.1185
     11 C8         -0.4399   -5.6391    2.9416 C.2       1 <0>         0.5038
     12 O2         -1.5721   -6.0557    2.8176 O.2       1 <0>        -0.5192
     13 C9          0.4253   -6.1334    4.0722 C.3       1 <0>         0.0241
     14 H1          0.9994   -5.3018    4.4807 H         1 <0>         0.1732
     15 C10         1.3828   -7.2065    3.5501 C.3       1 <0>        -0.1718
     16 C11         2.3297   -7.6128    4.6498 C.2       1 <0>         0.5165
     17 O3          2.2468   -7.0952    5.7434 O.2       1 <0>        -0.5534
     18 N3          3.2686   -8.5516    4.4180 N.am      1 <0>        -0.8289
     19 N4         -0.4245   -6.7057    5.1250 N.4       1 <0>        -0.6188
     20 H2          1.0048    1.8381    0.0023 H         1 <0>         0.0636
     21 H3         -0.5450    1.8219   -0.8730 H         1 <0>         0.0802
     22 H4         -0.5280    1.8123    0.9069 H         1 <0>         0.0626
     23 H5         -0.4183   -0.4908   -0.7241 H         1 <0>         0.4027
     24 H6          1.1355   -2.5335    0.0986 H         1 <0>         0.1064
     25 H7         -1.3148   -2.3814    1.9129 H         1 <0>         0.0785
     26 H8         -1.3446   -2.3314    0.1333 H         1 <0>         0.0921
     27 H9         -1.8011   -4.6274    1.0670 H         1 <0>         0.1072
     28 H10        -0.3652   -4.5748    0.0123 H         1 <0>         0.0888
     29 H11         1.8518   -4.5893    3.1331 H         1 <0>         0.0891
     30 H12         2.0151   -4.5499    1.3585 H         1 <0>         0.0942
     31 H13         2.3804   -2.2925    2.2401 H         1 <0>         0.0974
     32 H14         0.8408   -2.3588    3.1321 H         1 <0>         0.0809
     33 H15         0.8115   -8.0753    3.2231 H         1 <0>         0.1339
     34 H16         1.9514   -6.8083    2.7097 H         1 <0>         0.1477
     35 H17         3.3349   -8.9656    3.5433 H         1 <0>         0.4136
     36 H18         3.8781   -8.8131    5.1258 H         1 <0>         0.4197
     37 H19        -0.9560   -7.4755    4.7468 H         1 <0>         0.4380
     38 H20         0.1548   -7.0367    5.8819 H         1 <0>         0.4473
     39 H21        -1.0560   -5.9981    5.4693 H         1 <0>         0.4423
@<TRIPOS>BOND
     1    1    2 1
     2    1   20 1
     3    1   21 1
     4    1   22 1
     5    2    3 am
     6    2   23 1
     7    3    4 2
     8    3    5 1
     9    5   10 1
    10    5    6 1
    11    5   24 1
    12    6    7 1
    13    6   25 1
    14    6   26 1
    15    7    8 1
    16    7   27 1
    17    7   28 1
    18    8    9 1
    19    8   11 am
    20    9   10 1
    21    9   29 1
    22    9   30 1
    23   10   31 1
    24   10   32 1
    25   11   12 2
    26   11   13 1
    27   13   14 1
    28   13   15 1
    29   13   19 1
    30   15   16 1
    31   15   33 1
    32   15   34 1
    33   16   17 2
    34   16   18 am
    35   18   35 1
    36   18   36 1
    37   19   37 1
    38   19   38 1
    39   19   39 1
@<TRIPOS>MOLECULE
ZINC45277280
   35    35     0     0     0
SMALL
USER_CHARGES

@<TRIPOS>ATOM
      1 C1         -0.0187    1.5258    0.0104 C.3       1 <0>        -0.1792
      2 C2          0.0021   -0.0041    0.0020 C.3       1 <0>         0.0508
      3 C3          0.7421   -0.5109    1.2415 C.3       1 <0>        -0.1356
      4 C4          2.1775    0.0187    1.2307 C.3       1 <0>         0.0468
      5 N1          2.8879   -0.4680    2.4208 N.3       1 <0>        -0.5547
      6 C5          3.0082   -1.9275    2.4001 C.3       1 <0>         0.0733
      7 C6          3.3192   -2.4436    3.8098 C.3       1 <0>        -0.4460
      8 S1          4.9088   -1.7348    4.3413 S.o       1 <0>         1.2421
      9 O1          5.0746   -1.9380    5.7379 O.2       1 <0>        -0.8388
     10 C7          4.6875    0.0406    4.0087 C.3       1 <0>        -0.4448
     11 C8          4.1815    0.2025    2.5706 C.3       1 <0>         0.0820
     12 C9         -1.4117   -0.5257    0.0127 C.2       1 <0>         0.5079
     13 O2         -1.9390   -0.8271    1.0625 O.2       1 <0>        -0.4697
     14 N2         -2.0902   -0.6573   -1.1443 N.am      1 <0>        -0.8484
     15 N3          0.6897   -0.4778   -1.2066 N.4       1 <0>        -0.6350
     16 H1          1.0039    1.9031    0.0027 H         1 <0>         0.1023
     17 H2         -0.5459    1.8868   -0.8726 H         1 <0>         0.0906
     18 H3         -0.5289    1.8773    0.9072 H         1 <0>         0.1187
     19 H4          0.2319   -0.1594    2.1383 H         1 <0>         0.1352
     20 H5          0.7568   -1.6008    1.2356 H         1 <0>         0.0995
     21 H6          2.6876   -0.3328    0.3339 H         1 <0>         0.0330
     22 H7          2.1627    1.1086    1.2367 H         1 <0>         0.0986
     23 H8          2.0713   -2.3634    2.0532 H         1 <0>         0.0828
     24 H9          3.8129   -2.2151    1.7233 H         1 <0>         0.0596
     25 H10         2.5312   -2.1340    4.4964 H         1 <0>         0.0978
     26 H11         3.3884   -3.5313    3.7958 H         1 <0>         0.1225
     27 H12         3.9579    0.4563    4.7038 H         1 <0>         0.0978
     28 H13         5.6404    0.5573    4.1232 H         1 <0>         0.1241
     29 H14         4.9008   -0.2399    1.8815 H         1 <0>         0.0602
     30 H15         4.0685    1.2626    2.3435 H         1 <0>         0.0874
     31 H16        -1.6686   -0.4162   -1.9840 H         1 <0>         0.3961
     32 H17        -3.0003   -0.9930   -1.1375 H         1 <0>         0.4283
     33 H18         1.6363   -0.1286   -1.2138 H         1 <0>         0.4414
     34 H19         0.7033   -1.4867   -1.2121 H         1 <0>         0.4405
     35 H20         0.2017   -0.1436   -2.0240 H         1 <0>         0.4326
@<TRIPOS>BOND
     1    1    2 1
     2    1   16 1
     3    1   17 1
     4    1   18 1
     5    2    3 1
     6    2   12 1
     7    2   15 1
     8    3    4 1
     9    3   19 1
    10    3   20 1
    11    4    5 1
    12    4   21 1
    13    4   22 1
    14    5   11 1
    15    5    6 1
    16    6    7 1
    17    6   23 1
    18    6   24 1
    19    7    8 1
    20    7   25 1
    21    7   26 1
    22    8    9 2
    23    8   10 1
    24   10   11 1
    25   10   27 1
    26   10   28 1
    27   11   29 1
    28   11   30 1
    29   12   13 2
    30   12   14 am
    31   14   31 1
    32   14   32 1
    33   15   33 1
    34   15   34 1
    35   15   35 1
@<TRIPOS>MOLECULE
ZINC55085799
   42    43     0     0     0
SMALL
USER_CHARGES

@<TRIPOS>ATOM
      1 C1         -0.0681    1.1259   -0.1409 C.3       1 <0>        -0.1208
      2 C2          1.2775    1.8430   -0.0133 C.3       1 <0>        -0.1267
      3 C3          2.1254    1.5611   -1.2552 C.3       1 <0>        -0.1054
      4 H1          3.0840    2.0720   -1.1642 H         1 <0>         0.1181
      5 C4          2.3604    0.0545   -1.3811 C.3       1 <0>        -0.1194
      6 C5          1.0149   -0.6626   -1.5088 C.3       1 <0>         0.0063
      7 H2          0.4931   -0.3009   -2.3948 H         1 <0>         0.1707
      8 C6          0.1669   -0.3807   -0.2669 C.3       1 <0>        -0.1403
      9 N1          1.2405   -2.1091   -1.6298 N.4       1 <0>        -0.6339
     10 C7          1.4040    2.0611   -2.4801 C.2       1 <0>         0.5229
     11 O1          1.0316    1.2769   -3.3270 O.2       1 <0>        -0.5500
     12 N2          1.1726    3.3799   -2.6345 N.am      1 <0>        -0.6002
     13 C8          1.7236    4.3532   -1.6818 C.3       1 <0>         0.0953
     14 C9          2.5096    5.4136   -2.4594 C.3       1 <0>        -0.1360
     15 C10         1.6072    6.0265   -3.5328 C.3       1 <0>        -0.1159
     16 C11         1.1656    4.9373   -4.5130 C.3       1 <0>        -0.1238
     17 H3          2.0439    4.4786   -4.9671 H         1 <0>         0.1034
     18 C12         0.3695    3.8720   -3.7622 C.3       1 <0>         0.1280
     19 C13         0.3042    5.5477   -5.5884 C.2       1 <0>         0.5245
     20 O2         -0.8373    5.1669   -5.7400 O.2       1 <0>        -0.5385
     21 N3          0.8023    6.5167   -6.3818 N.am      1 <0>        -0.8510
     22 H4         -0.6722    1.3267    0.7438 H         1 <0>         0.0906
     23 H5         -0.5899    1.4876   -1.0269 H         1 <0>         0.0741
     24 H6          1.1101    2.9163    0.0765 H         1 <0>         0.0884
     25 H7          1.7993    1.4813    0.8727 H         1 <0>         0.0873
     26 H8          2.9645   -0.1463   -2.2659 H         1 <0>         0.0939
     27 H9          2.8822   -0.3072   -0.4951 H         1 <0>         0.0949
     28 H10         0.6887   -0.7424    0.6191 H         1 <0>         0.0870
     29 H11        -0.7917   -0.8916   -0.3578 H         1 <0>         0.0887
     30 H12         1.7235   -2.4439   -0.8096 H         1 <0>         0.4279
     31 H13         0.3531   -2.5820   -1.7140 H         1 <0>         0.4358
     32 H14         0.9102    4.8295   -1.1345 H         1 <0>         0.0812
     33 H15         2.3883    3.8448   -0.9834 H         1 <0>         0.0922
     34 H16         2.8426    6.1940   -1.7751 H         1 <0>         0.0897
     35 H17         3.3753    4.9504   -2.9328 H         1 <0>         0.0729
     36 H18         0.7295    6.4678   -3.0608 H         1 <0>         0.0766
     37 H19         2.1565    6.7987   -4.0714 H         1 <0>         0.0781
     38 H20         0.1410    3.0462   -4.4360 H         1 <0>         0.1025
     39 H21        -0.5568    4.3082   -3.3883 H         1 <0>         0.0845
     40 H22         1.7153    6.8212   -6.2606 H         1 <0>         0.4029
     41 H23         0.2479    6.9095   -7.0740 H         1 <0>         0.4072
     42 H24         1.7997   -2.2950   -2.4488 H         1 <0>         0.4365
@<TRIPOS>BOND
     1    1    8 1
     2    1    2 1
     3    1   22 1
     4    1   23 1
     5    2    3 1
     6    2   24 1
     7    2   25 1
     8    3    4 1
     9    3    5 1
    10    3   10 1
    11    5    6 1
    12    5   26 1
    13    5   27 1
    14    6    7 1
    15    6    8 1
    16    6    9 1
    17    8   28 1
    18    8   29 1
    19    9   30 1
    20    9   31 1
    21    9   42 1
    22   10   11 2
    23   10   12 am
    24   12   18 1
    25   12   13 1
    26   13   14 1
    27   13   32 1
    28   13   33 1
    29   14   15 1
    30   14   34 1
    31   14   35 1
    32   15   16 1
    33   15   36 1
    34   15   37 1
    35   16   17 1
    36   16   18 1
    37   16   19 1
    38   18   38 1
    39   18   39 1
    40   19   20 2
    41   19   21 am
    42   21   40 1
    43   21   41 1
@<TRIPOS>MOLECULE
ZINC63175403
   36    37     0     0     0
SMALL
USER_CHARGES

@<TRIPOS>ATOM
      1 C1         -0.0184    1.5028    0.0103 C.3       1 <0>        -0.1450
      2 C2          0.0021   -0.0041    0.0020 C.2       1 <0>         0.2318
      3 C3          0.0079   -0.7958   -1.0953 C.2       1 <0>        -0.8307
      4 C4          0.0284   -2.1267   -0.6656 C.2       1 <0>         0.1607
      5 N1          0.0347   -2.1338    0.6427 N.2       1 <0>        -0.2782
      6 N2          0.0237   -0.8054    1.0876 N.pl3     1 <0>        -0.4545
      7 H1          0.0286   -0.5133    2.0125 H         1 <0>         0.4480
      8 C5          0.0404   -3.3426   -1.5559 C.3       1 <0>        -0.1133
      9 S1         -0.0081   -0.2472   -2.7696 S.o2      1 <0>         2.7247
     10 O1         -0.5477   -1.3118   -3.5407 O.2       1 <0>        -0.9537
     11 O2         -0.5775    1.0548   -2.7649 O.2       1 <0>        -0.9448
     12 N3          1.5692   -0.0722   -3.2427 N.pl3     1 <0>        -1.1237
     13 C6          2.4438   -1.2447   -3.3241 C.3       1 <0>         0.1273
     14 H2          1.8580   -2.1524   -3.4687 H         1 <0>         0.1246
     15 C7          3.3288   -1.3583   -2.0580 C.3       1 <0>        -0.1410
     16 C8          4.5465   -2.1850   -2.5205 C.3       1 <0>        -0.1257
     17 C9          4.6471   -2.0040   -4.0453 C.3       1 <0>        -0.1390
     18 C10         3.4839   -1.0759   -4.4594 C.3       1 <0>         0.0131
     19 H3          3.8240   -0.0418   -4.5146 H         1 <0>         0.1571
     20 N4          2.9147   -1.5005   -5.7454 N.4       1 <0>        -0.6345
     21 H4          1.0042    1.8801    0.0026 H         1 <0>         0.0992
     22 H5         -0.5455    1.8639   -0.8728 H         1 <0>         0.1264
     23 H6         -0.5286    1.8543    0.9071 H         1 <0>         0.0922
     24 H7          1.0708   -3.6217   -1.7759 H         1 <0>         0.0816
     25 H8         -0.4595   -4.1685   -1.0497 H         1 <0>         0.0903
     26 H9         -0.4815   -3.1172   -2.4858 H         1 <0>         0.1104
     27 H10         1.9140    0.8065   -3.4658 H         1 <0>         0.4250
     28 H11         3.6437   -0.3702   -1.7227 H         1 <0>         0.0912
     29 H12         2.7936   -1.8790   -1.2640 H         1 <0>         0.0927
     30 H13         5.4526   -1.8158   -2.0401 H         1 <0>         0.0889
     31 H14         4.3971   -3.2372   -2.2785 H         1 <0>         0.0864
     32 H15         5.6020   -1.5470   -4.3048 H         1 <0>         0.1041
     33 H16         4.5466   -2.9684   -4.5432 H         1 <0>         0.0927
     34 H17         2.1043   -0.9377   -5.9568 H         1 <0>         0.4390
     35 H18         3.6039   -1.3843   -6.4731 H         1 <0>         0.4399
     36 H19         2.6448   -2.4711   -5.6897 H         1 <0>         0.4367
@<TRIPOS>BOND
     1    1    2 1
     2    1   21 1
     3    1   22 1
     4    1   23 1
     5    2    6 1
     6    2    3 2
     7    3    4 1
     8    3    9 1
     9    4    5 2
    10    4    8 1
    11    5    6 1
    12    6    7 1
    13    8   24 1
    14    8   25 1
    15    8   26 1
    16    9   10 2
    17    9   11 2
    18    9   12 1
    19   12   13 1
    20   12   27 1
    21   13   14 1
    22   13   18 1
    23   13   15 1
    24   15   16 1
    25   15   28 1
    26   15   29 1
    27   16   17 1
    28   16   30 1
    29   16   31 1
    30   17   18 1
    31   17   32 1
    32   17   33 1
    33   18   19 1
    34   18   20 1
    35   20   34 1
    36   20   35 1
    37   20   36 1
@<TRIPOS>MOLECULE
ZINC35737010
   25    25     0     0     0
SMALL
USER_CHARGES

@<TRIPOS>ATOM
      1 C1         -0.0187    1.5258    0.0104 C.3       1 <0>        -0.1625
      2 C2          0.0021   -0.0041    0.0020 C.3       1 <0>         0.2310
      3 H1         -1.0205   -0.3814    0.0098 H         1 <0>         0.1150
      4 C3          0.7074   -0.4901   -1.2379 C.2       1 <0>        -0.1692
      5 C4          0.1765   -0.9427   -2.4000 C.2       1 <0>        -0.1364
      6 C5          1.0262   -1.3404   -3.4151 C.2       1 <0>        -0.1592
      7 C6          2.3653   -1.2661   -3.2185 C.2       1 <0>        -0.1629
      8 S1          2.4592   -0.6117   -1.5601 S.3       1 <0>         0.0484
      9 N1          0.7106   -0.4894    1.1889 N.am      1 <0>        -0.6950
     10 C7          0.0512   -0.6335    2.3554 C.2       1 <0>         0.5205
     11 O1         -1.1294   -0.3612    2.4227 O.2       1 <0>        -0.5160
     12 C8          0.7740   -1.1285    3.5662 C.2       1 <0>         0.5063
     13 O2          1.9547   -1.4008    3.4990 O.2       1 <0>        -0.5046
     14 N2          0.1146   -1.2726    4.7328 N.am      1 <0>        -0.5452
     15 N3          0.7753   -1.7251    5.8394 N.3       1 <0>        -0.5978
     16 H2          1.0039    1.9031    0.0027 H         1 <0>         0.0652
     17 H3         -0.5459    1.8868   -0.8726 H         1 <0>         0.0772
     18 H4         -0.5289    1.8773    0.9072 H         1 <0>         0.0730
     19 H5         -0.8944   -0.9921   -2.5307 H         1 <0>         0.1369
     20 H6          0.6291   -1.7053   -4.3508 H         1 <0>         0.1380
     21 H7          3.1673   -1.5304   -3.8918 H         1 <0>         0.1890
     22 H8          1.6544   -0.7070    1.1351 H         1 <0>         0.4146
     23 H9         -0.8291   -1.0550    4.7865 H         1 <0>         0.4155
     24 H10         0.1549   -1.7811    6.6332 H         1 <0>         0.3660
     25 H11         1.2138   -2.6159    5.6598 H         1 <0>         0.3524
@<TRIPOS>BOND
     1    1    2 1
     2    1   16 1
     3    1   17 1
     4    1   18 1
     5    2    3 1
     6    2    4 1
     7    2    9 1
     8    4    8 1
     9    4    5 2
    10    5    6 1
    11    5   19 1
    12    6    7 2
    13    6   20 1
    14    7    8 1
    15    7   21 1
    16    9   10 am
    17    9   22 1
    18   10   11 2
    19   10   12 1
    20   12   13 2
    21   12   14 am
    22   14   15 1
    23   14   23 1
    24   15   24 1
    25   15   25 1
@<TRIPOS>MOLECULE
ZINC40479507
   33    33     0     0     0
SMALL
USER_CHARGES

@<TRIPOS>ATOM
      1 C1         -0.0187    1.5258    0.0104 C.3       1 <0>        -0.1722
      2 C2          0.0021   -0.0041    0.0020 C.3       1 <0>         0.0063
      3 H1          0.5123   -0.3556   -0.8948 H         1 <0>         0.1529
      4 C3          0.7309   -0.5033    1.2229 C.2       1 <0>         0.5009
      5 O1          0.1049   -0.8912    2.1865 O.2       1 <0>        -0.5081
      6 N1          2.0785   -0.5187    1.2440 N.am      1 <0>        -0.6701
      7 C4          2.7870   -1.0040    2.4308 C.3       1 <0>         0.1083
      8 C5          2.3965   -2.4589    2.6986 C.3       1 <0>        -0.1145
      9 C6          2.7753   -3.3190    1.4912 C.3       1 <0>        -0.1123
     10 C7          4.2845   -3.2311    1.2557 C.3       1 <0>        -0.1210
     11 C8          4.6749   -1.7762    0.9880 C.3       1 <0>        -0.1172
     12 C9          4.2962   -0.9160    2.1953 C.3       1 <0>        -0.1101
     13 C10         2.4140   -0.1568    3.6200 C.2       1 <0>         0.5009
     14 O2          1.6290    0.7668    3.4883 O.co2     1 <0>        -0.6822
     15 O3          2.8971   -0.3949    4.7138 O.co2     1 <0>        -0.6809
     16 N2         -1.3761   -0.5125    0.0124 N.4       1 <0>        -0.6188
     17 H2          1.0039    1.9031    0.0027 H         1 <0>         0.1093
     18 H3         -0.5459    1.8868   -0.8726 H         1 <0>         0.0855
     19 H4         -0.5289    1.8773    0.9072 H         1 <0>         0.0928
     20 H5          2.5791   -0.2084    0.4733 H         1 <0>         0.3917
     21 H6          2.9237   -2.8200    3.5816 H         1 <0>         0.0781
     22 H7          1.3213   -2.5215    2.8663 H         1 <0>         0.0734
     23 H8          2.4971   -4.3555    1.6820 H         1 <0>         0.0576
     24 H9          2.2481   -2.9579    0.6082 H         1 <0>         0.0467
     25 H10         4.8117   -3.5922    2.1388 H         1 <0>         0.0661
     26 H11         4.5543   -3.8439    0.3956 H         1 <0>         0.0574
     27 H12         5.7501   -1.7135    0.8202 H         1 <0>         0.0641
     28 H13         4.1478   -1.4151    0.1049 H         1 <0>         0.0513
     29 H14         4.5744    0.1205    2.0046 H         1 <0>         0.0629
     30 H15         4.8234   -1.2771    3.0784 H         1 <0>         0.0882
     31 H16        -1.8641   -0.1783   -0.8050 H         1 <0>         0.4344
     32 H17        -1.3624   -1.5214    0.0069 H         1 <0>         0.4360
     33 H18        -1.8484   -0.1871    0.8426 H         1 <0>         0.4424
@<TRIPOS>BOND
     1    1    2 1
     2    1   17 1
     3    1   18 1
     4    1   19 1
     5    2    3 1
     6    2    4 1
     7    2   16 1
     8    4    5 2
     9    4    6 am
    10    6    7 1
    11    6   20 1
    12    7   12 1
    13    7    8 1
    14    7   13 1
    15    8    9 1
    16    8   21 1
    17    8   22 1
    18    9   10 1
    19    9   23 1
    20    9   24 1
    21   10   11 1
    22   10   25 1
    23   10   26 1
    24   11   12 1
    25   11   27 1
    26   11   28 1
    27   12   29 1
    28   12   30 1
    29   13   14 2
    30   13   15 1
    31   16   31 1
    32   16   32 1
    33   16   33 1
@<TRIPOS>MOLECULE
ZINC40531205
   33    33     0     0     0
SMALL
USER_CHARGES

@<TRIPOS>ATOM
      1 C1         -0.0157    1.4676    0.0143 C.3       1 <0>        -0.0238
      2 C2          1.4236    1.9930    0.0016 C.3       1 <0>         0.1097
      3 N1          2.1256    1.4022   -1.1483 N.am      1 <0>        -0.6424
      4 C3          2.0555   -0.0561   -1.3287 C.3       1 <0>         0.0907
      5 C4          0.5863   -0.4848   -1.2533 C.3       1 <0>        -0.0236
      6 N2          0.0001   -0.0007    0.0029 N.4       1 <0>        -0.3581
      7 C5         -1.3744   -0.5043    0.1259 C.3       1 <0>        -0.0843
      8 C6         -1.3506   -2.0070    0.2379 C.2       1 <0>         0.4869
      9 O1         -0.2873   -2.6031    0.2173 O.co2     1 <0>        -0.6722
     10 O2         -2.3948   -2.6265    0.3492 O.co2     1 <0>        -0.6367
     11 C7          2.8131    2.1751   -2.0122 C.2       1 <0>         0.7180
     12 O3          2.7817    3.3856   -1.9027 O.2       1 <0>        -0.5764
     13 N3          3.5355    1.6061   -2.9976 N.am      1 <0>        -0.7319
     14 C8          4.3691    2.4382   -3.8687 C.3       1 <0>         0.1150
     15 C9          5.0676    1.5651   -4.8791 C.2       1 <0>         0.5137
     16 O4          4.8868    0.3658   -4.8722 O.2       1 <0>        -0.5397
     17 N4          5.8931    2.1169   -5.7904 N.am      1 <0>        -0.8457
     18 H1         -0.5229    1.8187    0.9129 H         1 <0>         0.1374
     19 H2         -0.5435    1.8322   -0.8670 H         1 <0>         0.1260
     20 H3          1.4163    3.0789   -0.0922 H         1 <0>         0.1325
     21 H4          1.9265    1.7055    0.9249 H         1 <0>         0.0921
     22 H5          2.4659   -0.3249   -2.3020 H         1 <0>         0.1160
     23 H6          2.6222   -0.5505   -0.5397 H         1 <0>         0.0999
     24 H7          0.0404   -0.0611   -2.0962 H         1 <0>         0.1170
     25 H8          0.5228   -1.5724   -1.2886 H         1 <0>         0.1718
     26 H9         -1.8382   -0.0808    1.0167 H         1 <0>         0.1266
     27 H10        -1.9476   -0.2147   -0.7548 H         1 <0>         0.1232
     28 H11         3.5035    0.6458   -3.1299 H         1 <0>         0.4094
     29 H12         3.7420    3.1635   -4.3871 H         1 <0>         0.1044
     30 H13         5.1114    2.9635   -3.2677 H         1 <0>         0.1036
     31 H14         6.0377    3.0760   -5.7960 H         1 <0>         0.4071
     32 H15         6.3426    1.5549   -6.4408 H         1 <0>         0.4100
     33 H16         0.5493   -0.3359    0.7801 H         1 <0>         0.4239
@<TRIPOS>BOND
     1    1    6 1
     2    1    2 1
     3    1   18 1
     4    1   19 1
     5    2    3 1
     6    2   20 1
     7    2   21 1
     8    3    4 1
     9    3   11 am
    10    4    5 1
    11    4   22 1
    12    4   23 1
    13    5    6 1
    14    5   24 1
    15    5   25 1
    16    6    7 1
    17    6   33 1
    18    7    8 1
    19    7   26 1
    20    7   27 1
    21    8    9 2
    22    8   10 1
    23   11   12 2
    24   11   13 am
    25   13   14 1
    26   13   28 1
    27   14   15 1
    28   14   29 1
    29   14   30 1
    30   15   16 2
    31   15   17 am
    32   17   31 1
    33   17   32 1
@<TRIPOS>MOLECULE
ZINC41804901
   36    36     0     0     0
SMALL
USER_CHARGES

@<TRIPOS>ATOM
      1 C1         -0.6181    1.4072    0.0367 C.3       1 <0>        -0.1509
      2 C2         -0.0359    0.0293    0.3580 C.3       1 <0>        -0.0975
      3 C3         -0.8080   -1.0431   -0.4133 C.3       1 <0>        -0.1327
      4 C4         -0.2258   -2.4210   -0.0919 C.3       1 <0>        -0.1160
      5 C5         -0.3453   -2.6875    1.4099 C.3       1 <0>        -0.0200
      6 C6          0.4268   -1.6152    2.1812 C.3       1 <0>        -0.1196
      7 C7         -0.1554   -0.2373    1.8599 C.3       1 <0>        -0.1293
      8 C8          0.2281   -4.0448    1.7265 C.2       1 <0>         0.5062
      9 O1          0.9569   -4.6012    0.9228 O.co2     1 <0>        -0.6368
     10 O2         -0.0367   -4.5864    2.7862 O.co2     1 <0>        -0.6617
     11 N1         -1.7603   -2.6500    1.8028 N.4       1 <0>        -0.4692
     12 C9         -2.5226   -3.5975    0.9787 C.3       1 <0>         0.0074
     13 H1         -2.3762   -3.3616   -0.0754 H         1 <0>         0.1568
     14 C10        -2.0351   -5.0211    1.2553 C.3       1 <0>        -0.1920
     15 C11        -3.9872   -3.4932    1.3181 C.2       1 <0>         0.5166
     16 O3         -4.3593   -2.7070    2.1633 O.2       1 <0>        -0.5365
     17 N2         -4.8835   -4.2735    0.6824 N.am      1 <0>        -0.8290
     18 H2         -0.0681    2.1712    0.5862 H         1 <0>         0.0602
     19 H3         -0.5330    1.5971   -1.0333 H         1 <0>         0.0595
     20 H4         -1.6680    1.4350    0.3282 H         1 <0>         0.0536
     21 H5          1.0140    0.0014    0.0665 H         1 <0>         0.0847
     22 H6         -1.8579   -1.0153   -0.1217 H         1 <0>         0.0495
     23 H7         -0.7229   -0.8532   -1.4832 H         1 <0>         0.0848
     24 H8         -0.7758   -3.1850   -0.6414 H         1 <0>         0.0800
     25 H9          0.8241   -2.4488   -0.3835 H         1 <0>         0.1124
     26 H10         0.3416   -1.8051    3.2512 H         1 <0>         0.0874
     27 H11         1.4767   -1.6430    1.8897 H         1 <0>         0.1053
     28 H12         0.3946    0.5267    2.4094 H         1 <0>         0.0863
     29 H13        -1.2053   -0.2094    2.1514 H         1 <0>         0.0545
     30 H14        -1.8462   -2.9053    2.7752 H         1 <0>         0.4318
     31 H15        -2.7216   -5.7351    0.8003 H         1 <0>         0.0835
     32 H16        -1.0398   -5.1531    0.8310 H         1 <0>         0.1244
     33 H17        -1.9966   -5.1893    2.3315 H         1 <0>         0.1064
     34 H18        -4.5859   -4.9023    0.0064 H         1 <0>         0.4116
     35 H19        -5.8262   -4.2064    0.9008 H         1 <0>         0.4174
     36 H20        -2.1226   -1.7183    1.6664 H         1 <0>         0.4108
@<TRIPOS>BOND
     1    1    2 1
     2    1   18 1
     3    1   19 1
     4    1   20 1
     5    2    7 1
     6    2    3 1
     7    2   21 1
     8    3    4 1
     9    3   22 1
    10    3   23 1
    11    4    5 1
    12    4   24 1
    13    4   25 1
    14    5    6 1
    15    5    8 1
    16    5   11 1
    17    6    7 1
    18    6   26 1
    19    6   27 1
    20    7   28 1
    21    7   29 1
    22    8    9 2
    23    8   10 1
    24   11   12 1
    25   11   30 1
    26   11   36 1
    27   12   13 1
    28   12   14 1
    29   12   15 1
    30   14   31 1
    31   14   32 1
    32   14   33 1
    33   15   16 2
    34   15   17 am
    35   17   34 1
    36   17   35 1
@<TRIPOS>MOLECULE
ZINC61574338
   31    31     0     0     0
SMALL
USER_CHARGES

@<TRIPOS>ATOM
      1 C1         -0.6503   -3.1124   -2.6463 C.3       1 <0>        -0.1804
      2 C2          0.6792   -2.4139   -2.9383 C.3       1 <0>         0.0046
      3 H1          0.7072   -2.1086   -3.9843 H         1 <0>         0.1569
      4 C3          1.8167   -3.3628   -2.6613 C.2       1 <0>         0.5158
      5 O1          2.6533   -3.0803   -1.8299 O.2       1 <0>        -0.5315
      6 N1          1.9043   -4.5253   -3.3375 N.am      1 <0>        -0.8288
      7 N2          0.8092   -1.2295   -2.0790 N.4       1 <0>        -0.4696
      8 C4         -0.1603   -0.2097   -2.5009 C.3       1 <0>        -0.0192
      9 C5          0.0152    0.0709   -3.9903 C.3       1 <0>        -0.1285
     10 C6          1.4838    0.3114   -4.3271 C.3       1 <0>        -0.1419
     11 C7          1.9329    1.6643   -3.7672 C.3       1 <0>        -0.0915
     12 S1          1.7832    1.6238   -1.9556 S.3       1 <0>        -0.2540
     13 C8          0.0695    1.0738   -1.6973 C.3       1 <0>        -0.0883
     14 C9         -1.5581   -0.7138   -2.2498 C.2       1 <0>         0.5079
     15 O2         -1.8085   -1.3344   -1.2307 O.co2     1 <0>        -0.6535
     16 O3         -2.4387   -0.5009   -3.0658 O.co2     1 <0>        -0.6289
     17 H2         -0.7573   -3.2551   -1.5710 H         1 <0>         0.1007
     18 H3         -1.4720   -2.4984   -3.0149 H         1 <0>         0.1196
     19 H4         -0.6688   -4.0815   -3.1450 H         1 <0>         0.0855
     20 H5          1.2353   -4.7513   -4.0024 H         1 <0>         0.4114
     21 H6          2.6365   -5.1361   -3.1592 H         1 <0>         0.4181
     22 H7          0.6296   -1.4882   -1.1204 H         1 <0>         0.4325
     23 H8         -0.3485   -0.7832   -4.5615 H         1 <0>         0.0969
     24 H9         -0.5638    0.9543   -4.2595 H         1 <0>         0.1123
     25 H10         2.0902   -0.4812   -3.8886 H         1 <0>         0.0604
     26 H11         1.6124    0.3069   -5.4095 H         1 <0>         0.1020
     27 H12         2.9710    1.8483   -4.0443 H         1 <0>         0.1180
     28 H13         1.2992    2.4549   -4.1689 H         1 <0>         0.1004
     29 H14        -0.6183    1.8472   -2.0391 H         1 <0>         0.1256
     30 H15        -0.0955    0.8765   -0.6381 H         1 <0>         0.1307
     31 H16         1.7440   -0.8579   -2.1576 H         1 <0>         0.4168
@<TRIPOS>BOND
     1    1    2 1
     2    1   17 1
     3    1   18 1
     4    1   19 1
     5    2    3 1
     6    2    4 1
     7    2    7 1
     8    4    5 2
     9    4    6 am
    10    6   20 1
    11    6   21 1
    12    7    8 1
    13    7   22 1
    14    7   31 1
    15    8   13 1
    16    8    9 1
    17    8   14 1
    18    9   10 1
    19    9   23 1
    20    9   24 1
    21   10   11 1
    22   10   25 1
    23   10   26 1
    24   11   12 1
    25   11   27 1
    26   11   28 1
    27   12   13 1
    28   13   29 1
    29   13   30 1
    30   14   15 2
    31   14   16 1
@<TRIPOS>MOLECULE
ZINC34924845
   31    31     0     0     0
SMALL
USER_CHARGES

@<TRIPOS>ATOM
      1 C1          1.5244    1.0610   -0.2751 C.3       1 <0>        -0.1157
      2 C2          0.7352   -0.2151   -0.1343 C.ar      1 <0>        -0.0668
      3 C3         -0.0113   -0.6867   -1.1988 C.ar      1 <0>        -0.1355
      4 C4         -0.7364   -1.8572   -1.0737 C.ar      1 <0>        -0.0966
      5 C5         -0.7174   -2.5595    0.1157 C.ar      1 <0>        -0.1271
      6 C6          0.0310   -2.0886    1.1863 C.ar      1 <0>         0.1480
      7 C7          0.7626   -0.9152    1.0557 C.ar      1 <0>        -0.1472
      8 N1          0.0521   -2.7974    2.3926 N.am      1 <0>        -0.6744
      9 C8         -0.0314   -4.1425    2.3854 C.2       1 <0>         0.5151
     10 O1         -0.0283   -4.7447    1.3326 O.2       1 <0>        -0.5205
     11 C9         -0.1286   -4.8984    3.6855 C.3       1 <0>        -0.1237
     12 C10        -0.2110   -6.3989    3.3981 C.3       1 <0>        -0.1199
     13 C11        -0.3082   -7.1548    4.6982 C.2       1 <0>         0.5147
     14 O2         -0.3113   -6.5526    5.7510 O.2       1 <0>        -0.5301
     15 N2         -0.3917   -8.4999    4.6910 N.am      1 <0>        -0.5793
     16 N3         -0.4798   -9.1851    5.8695 N.3       1 <0>        -0.6047
     17 H1          2.5240    0.8311   -0.6440 H         1 <0>         0.0722
     18 H2          1.0210    1.7238   -0.9789 H         1 <0>         0.0687
     19 H3          1.5992    1.5510    0.6956 H         1 <0>         0.0669
     20 H4         -0.0281   -0.1393   -2.1296 H         1 <0>         0.1235
     21 H5         -1.3186   -2.2227   -1.9067 H         1 <0>         0.1262
     22 H6         -1.2843   -3.4736    0.2129 H         1 <0>         0.1331
     23 H7          1.3490   -0.5486    1.8852 H         1 <0>         0.1253
     24 H8          0.1268   -2.3206    3.2340 H         1 <0>         0.4134
     25 H9          0.7532   -4.6925    4.2923 H         1 <0>         0.1077
     26 H10        -1.0220   -4.5820    4.2238 H         1 <0>         0.1074
     27 H11        -1.0928   -6.6048    2.7913 H         1 <0>         0.1035
     28 H12         0.6825   -6.7153    2.8598 H         1 <0>         0.1062
     29 H13        -0.3892   -8.9815    3.8490 H         1 <0>         0.4032
     30 H14        -1.2644   -8.8639    6.4166 H         1 <0>         0.3473
     31 H15        -0.5354  -10.1793    5.7064 H         1 <0>         0.3589
@<TRIPOS>BOND
     1    1    2 1
     2    1   17 1
     3    1   18 1
     4    1   19 1
     5    2    7 ar
     6    2    3 ar
     7    3    4 ar
     8    3   20 1
     9    4    5 ar
    10    4   21 1
    11    5    6 ar
    12    5   22 1
    13    6    7 ar
    14    6    8 1
    15    7   23 1
    16    8    9 am
    17    8   24 1
    18    9   10 2
    19    9   11 1
    20   11   12 1
    21   11   25 1
    22   11   26 1
    23   12   13 1
    24   12   27 1
    25   12   28 1
    26   13   14 2
    27   13   15 am
    28   15   16 1
    29   15   29 1
    30   16   30 1
    31   16   31 1
@<TRIPOS>MOLECULE
ZINC40168044
   23    23     0     0     0
SMALL
USER_CHARGES

@<TRIPOS>ATOM
      1 C1         -0.0229    1.8383    0.0121 C.3       1 <0>        -0.5998
      2 C2          1.5022    2.1436   -0.0008 C.3       1 <0>         0.1412
      3 H1          1.9114    2.0177    1.0016 H         1 <0>         0.1496
      4 C3          2.1799    1.1570   -0.9661 C.3       1 <0>        -0.0394
      5 H2          1.9334    1.4281   -1.9927 H         1 <0>         0.1187
      6 C4          1.6864   -0.2822   -0.6821 C.3       1 <0>        -0.5835
      7 S1          0.0021   -0.0041    0.0020 S.o2      1 <0>         2.3875
      8 O1         -0.0359   -0.4743    1.3424 O.2       1 <0>        -0.9130
      9 O2         -0.9598   -0.4743   -0.9322 O.2       1 <0>        -0.9208
     10 Cl1         3.9672    1.2308   -0.7403 Cl        1 <0>        -0.0908
     11 N1          1.7280    3.5169   -0.4583 N.pl3     1 <0>        -0.6696
     12 C5          2.8473    4.1732   -0.0937 C.2       1 <0>         0.5580
     13 S2          4.0052    3.4021    0.9041 S.2       1 <0>        -0.5776
     14 N2          3.0550    5.4366   -0.5146 N.pl3     1 <0>        -0.5257
     15 N3          2.1311    6.0519   -1.3108 N.3       1 <0>        -0.6239
     16 H3         -0.4939    2.2211    0.9175 H         1 <0>         0.1578
     17 H4         -0.5111    2.2308   -0.8799 H         1 <0>         0.1489
     18 H5          1.6384   -0.8631   -1.6032 H         1 <0>         0.1571
     19 H6          2.3258   -0.7722    0.0522 H         1 <0>         0.1602
     20 H7          1.0719    3.9538   -1.0236 H         1 <0>         0.4081
     21 H8          3.8605    5.9090   -0.2522 H         1 <0>         0.4345
     22 H9          1.2214    6.0537   -0.8742 H         1 <0>         0.3449
     23 H10         2.4220    6.9894   -1.5442 H         1 <0>         0.3775
@<TRIPOS>BOND
     1    1    7 1
     2    1    2 1
     3    1   16 1
     4    1   17 1
     5    2    3 1
     6    2    4 1
     7    2   11 1
     8    4    5 1
     9    4    6 1
    10    4   10 1
    11    6    7 1
    12    6   18 1
    13    6   19 1
    14    7    8 2
    15    7    9 2
    16   11   12 1
    17   11   20 1
    18   12   13 2
    19   12   14 1
    20   14   15 1
    21   14   21 1
    22   15   22 1
    23   15   23 1
@<TRIPOS>MOLECULE
ZINC40483321
   36    36     0     0     0
SMALL
USER_CHARGES

@<TRIPOS>ATOM
      1 C1         -0.0187    1.5258    0.0104 C.3       1 <0>        -0.1708
      2 C2          0.0021   -0.0041    0.0020 C.3       1 <0>        -0.1448
      3 C3          0.7421   -0.5109    1.2415 C.3       1 <0>         0.0083
      4 H1          1.7350   -0.0630    1.2804 H         1 <0>         0.1629
      5 C4          0.8700   -2.0108    1.1719 C.2       1 <0>         0.4946
      6 O1          0.1081   -2.7143    1.8009 O.2       1 <0>        -0.5242
      7 N1          1.8311   -2.5706    0.4107 N.am      1 <0>        -0.6920
      8 C5          1.9554   -4.0287    0.3430 C.3       1 <0>         0.1413
      9 C6          1.0004   -4.5732   -0.7212 C.3       1 <0>        -0.1239
     10 C7          1.1302   -6.0960   -0.7919 C.3       1 <0>        -0.0937
     11 C8          2.5682   -6.4688   -1.1584 C.3       1 <0>        -0.1568
     12 C9          3.5232   -5.9243   -0.0943 C.3       1 <0>        -0.0947
     13 C10         3.3933   -4.4015   -0.0236 C.3       1 <0>        -0.1218
     14 C11         2.6961   -7.9687   -1.2280 C.2       1 <0>         0.4936
     15 O2          3.3663   -8.4832   -2.1070 O.co2     1 <0>        -0.6982
     16 O3          2.1294   -8.6677   -0.4054 O.co2     1 <0>        -0.6949
     17 N2         -0.0103   -0.1391    2.4472 N.4       1 <0>        -0.6206
     18 H2          1.0039    1.9031    0.0027 H         1 <0>         0.0751
     19 H3         -0.5459    1.8868   -0.8726 H         1 <0>         0.0878
     20 H4         -0.5289    1.8773    0.9072 H         1 <0>         0.0543
     21 H5         -1.0205   -0.3814    0.0098 H         1 <0>         0.0979
     22 H6          0.5123   -0.3556   -0.8948 H         1 <0>         0.1176
     23 H7          2.4404   -2.0080   -0.0924 H         1 <0>         0.4062
     24 H8          1.7039   -4.4602    1.3118 H         1 <0>         0.0979
     25 H9         -0.0240   -4.3076   -0.4600 H         1 <0>         0.0586
     26 H10         1.2519   -4.1417   -1.6900 H         1 <0>         0.0616
     27 H11         0.8788   -6.5275    0.1770 H         1 <0>         0.0709
     28 H12         0.4498   -6.4839   -1.5500 H         1 <0>         0.0612
     29 H13         2.8196   -6.0373   -2.1272 H         1 <0>         0.0612
     30 H14         3.2717   -6.3558    0.8746 H         1 <0>         0.0657
     31 H15         4.5476   -6.1899   -0.3554 H         1 <0>         0.0681
     32 H16         3.6448   -3.9700   -0.9924 H         1 <0>         0.0680
     33 H17         4.0737   -4.0136    0.7345 H         1 <0>         0.0639
     34 H18         0.4777   -0.4733    3.2646 H         1 <0>         0.4404
     35 H19        -0.0960    0.8652    2.4938 H         1 <0>         0.4375
     36 H20        -0.9295   -0.5537    2.4112 H         1 <0>         0.4419
@<TRIPOS>BOND
     1    1    2 1
     2    1   18 1
     3    1   19 1
     4    1   20 1
     5    2    3 1
     6    2   21 1
     7    2   22 1
     8    3    4 1
     9    3    5 1
    10    3   17 1
    11    5    6 2
    12    5    7 am
    13    7    8 1
    14    7   23 1
    15    8   13 1
    16    8    9 1
    17    8   24 1
    18    9   10 1
    19    9   25 1
    20    9   26 1
    21   10   11 1
    22   10   27 1
    23   10   28 1
    24   11   12 1
    25   11   14 1
    26   11   29 1
    27   12   13 1
    28   12   30 1
    29   12   31 1
    30   13   32 1
    31   13   33 1
    32   14   15 2
    33   14   16 1
    34   17   34 1
    35   17   35 1
    36   17   36 1
@<TRIPOS>MOLECULE
ZINC44781527
   39    39     0     0     0
SMALL
USER_CHARGES

@<TRIPOS>ATOM
      1 C1         -1.2612   -0.8821   -0.2083 C.3       1 <0>        -0.1259
      2 C2         -0.0209   -0.0149    0.0162 C.3       1 <0>        -0.0743
      3 C3         -0.4153    1.4625   -0.0354 C.3       1 <0>        -0.1599
      4 C4          0.5743   -0.3291    1.3646 C.2       1 <0>         0.2810
      5 S1          1.9681   -1.1066    1.4617 S.2       1 <0>        -0.4158
      6 N1         -0.0682    0.0453    2.4886 N.pl3     1 <0>        -0.7758
      7 C5          0.9941   -0.3017   -1.0601 C.2       1 <0>         0.5517
      8 O1          0.7499   -1.1199   -1.9214 O.2       1 <0>        -0.5287
      9 N2          2.1734    0.3509   -1.0655 N.am      1 <0>        -0.5890
     10 C6          2.5270    1.2668    0.0276 C.3       1 <0>         0.1063
     11 C7          2.9065    2.6251   -0.5707 C.3       1 <0>        -0.1365
     12 C8          4.0131    2.4293   -1.6095 C.3       1 <0>        -0.0712
     13 C9          3.5025    1.5302   -2.7379 C.3       1 <0>        -0.1334
     14 C10         3.1322    0.1552   -2.1614 C.3       1 <0>         0.1174
     15 C11         4.4188    3.7879   -2.1843 C.3       1 <0>        -0.1393
     16 C12         5.5903    3.6099   -3.1154 C.2       1 <0>         0.5144
     17 O2          6.0550    2.5051   -3.3009 O.2       1 <0>        -0.5360
     18 N3          6.1216    4.6783   -3.7419 N.am      1 <0>        -0.8593
     19 H1         -1.7361   -0.6005   -1.1482 H         1 <0>         0.0816
     20 H2         -0.9685   -1.9312   -0.2491 H         1 <0>         0.0756
     21 H3         -1.9628   -0.7322    0.6124 H         1 <0>         0.0629
     22 H4         -1.0363    1.7031    0.8275 H         1 <0>         0.0686
     23 H5          0.4833    2.0792   -0.0197 H         1 <0>         0.0831
     24 H6         -0.9739    1.6576   -0.9508 H         1 <0>         0.0823
     25 H7         -0.9138    0.5170    2.4297 H         1 <0>         0.3979
     26 H8          0.3149   -0.1569    3.3565 H         1 <0>         0.4212
     27 H9          1.6732    1.3869    0.6944 H         1 <0>         0.0780
     28 H10         3.3734    0.8630    0.5833 H         1 <0>         0.0846
     29 H11         2.0331    3.0689   -1.0486 H         1 <0>         0.0674
     30 H12         3.2630    3.2844    0.2208 H         1 <0>         0.0764
     31 H13         4.8771    1.9628   -1.1362 H         1 <0>         0.0842
     32 H14         2.6236    1.9843   -3.1954 H         1 <0>         0.0598
     33 H15         4.2833    1.4102   -3.4889 H         1 <0>         0.0943
     34 H16         4.0269   -0.3374   -1.7805 H         1 <0>         0.0723
     35 H17         2.6778   -0.4584   -2.9393 H         1 <0>         0.0921
     36 H18         3.5798    4.2152   -2.7336 H         1 <0>         0.0941
     37 H19         4.6994    4.4573   -1.3712 H         1 <0>         0.0954
     38 H20         5.7500    5.5619   -3.5935 H         1 <0>         0.4010
     39 H21         6.8757    4.5637   -4.3412 H         1 <0>         0.4017
@<TRIPOS>BOND
     1    1    2 1
     2    1   19 1
     3    1   20 1
     4    1   21 1
     5    2    3 1
     6    2    4 1
     7    2    7 1
     8    3   22 1
     9    3   23 1
    10    3   24 1
    11    4    5 2
    12    4    6 1
    13    6   25 1
    14    6   26 1
    15    7    8 2
    16    7    9 am
    17    9   14 1
    18    9   10 1
    19   10   11 1
    20   10   27 1
    21   10   28 1
    22   11   12 1
    23   11   29 1
    24   11   30 1
    25   12   13 1
    26   12   15 1
    27   12   31 1
    28   13   14 1
    29   13   32 1
    30   13   33 1
    31   14   34 1
    32   14   35 1
    33   15   16 1
    34   15   36 1
    35   15   37 1
    36   16   17 2
    37   16   18 am
    38   18   38 1
    39   18   39 1
@<TRIPOS>MOLECULE
ZINC63063497
   29    30     0     0     0
SMALL
USER_CHARGES

@<TRIPOS>ATOM
      1 C1          0.0703    1.2371    0.5947 C.ar      1 <0>        -0.1823
      2 C2          1.2562    1.9441    0.5949 C.ar      1 <0>        -0.0890
      3 C3          2.3815    1.4127   -0.0210 C.ar      1 <0>         0.0754
      4 C4          2.3142    0.1705   -0.6377 C.ar      1 <0>        -0.0668
      5 C5          1.1284   -0.5366   -0.6385 C.ar      1 <0>        -0.1821
      6 C6          0.0029   -0.0057   -0.0217 C.ar      1 <0>         0.2079
      7 N1         -1.1984   -0.7223   -0.0216 N.pl3     1 <0>        -0.8788
      8 N2          3.5852    2.1306   -0.0207 N.am      1 <0>        -0.6626
      9 C7          4.7601    1.4760    0.0663 C.2       1 <0>         0.5026
     10 O1          4.7806    0.2632    0.0597 O.2       1 <0>        -0.5098
     11 C8          6.0483    2.2509    0.1717 C.3       1 <0>         0.1167
     12 H1          6.0242    3.1141   -0.4935 H         1 <0>         0.1092
     13 C9          6.2808    2.7057    1.6296 C.3       1 <0>        -0.1218
     14 C10         7.8179    2.5920    1.7540 C.3       1 <0>        -0.1551
     15 C11         8.1991    1.5621    0.7136 C.2       1 <0>         0.5229
     16 O2          9.2616    0.9789    0.6702 O.2       1 <0>        -0.5240
     17 N3          7.1886    1.3877   -0.1577 N.am      1 <0>        -0.7124
     18 H2         -0.8037    1.6485    1.0777 H         1 <0>         0.1248
     19 H3          1.3085    2.9107    1.0739 H         1 <0>         0.1260
     20 H4          3.1894   -0.2425   -1.1171 H         1 <0>         0.1370
     21 H5          1.0760   -1.5026   -1.1185 H         1 <0>         0.1236
     22 H6         -1.9845   -0.3513    0.4090 H         1 <0>         0.3985
     23 H7         -1.2454   -1.5903   -0.4521 H         1 <0>         0.3989
     24 H8          3.5727    3.0985   -0.0831 H         1 <0>         0.4106
     25 H9          5.9529    3.7351    1.7740 H         1 <0>         0.1036
     26 H10         5.7821    2.0369    2.3311 H         1 <0>         0.0896
     27 H11         8.2903    3.5494    1.5341 H         1 <0>         0.1117
     28 H12         8.0956    2.2485    2.7505 H         1 <0>         0.1089
     29 H13         7.2099    0.7708   -0.9061 H         1 <0>         0.4169
@<TRIPOS>BOND
     1    1    6 ar
     2    1    2 ar
     3    1   18 1
     4    2    3 ar
     5    2   19 1
     6    3    4 ar
     7    3    8 1
     8    4    5 ar
     9    4   20 1
    10    5    6 ar
    11    5   21 1
    12    6    7 1
    13    7   22 1
    14    7   23 1
    15    8    9 am
    16    8   24 1
    17    9   10 2
    18    9   11 1
    19   11   12 1
    20   11   17 1
    21   11   13 1
    22   13   14 1
    23   13   25 1
    24   13   26 1
    25   14   15 1
    26   14   27 1
    27   14   28 1
    28   15   16 2
    29   15   17 am
    30   17   29 1
@<TRIPOS>MOLECULE
ZINC37043263
   30    30     0     0     0
SMALL
USER_CHARGES

@<TRIPOS>ATOM
      1 C1         -1.4327    2.0236   -1.0897 C.3       1 <0>        -0.1793
      2 C2         -0.1581    1.3647   -0.5585 C.3       1 <0>         0.0052
      3 H1         -0.4239    0.5484    0.1132 H         1 <0>         0.1691
      4 C3          0.6463    0.8239   -1.7124 C.2       1 <0>         0.5062
      5 O1          1.7732    1.2273   -1.9078 O.2       1 <0>        -0.5339
      6 N1          0.1133   -0.1080   -2.5273 N.am      1 <0>        -0.6664
      7 C4          0.8519   -0.5546   -3.7111 C.3       1 <0>         0.2525
      8 H2          1.9121   -0.6315   -3.4702 H         1 <0>         0.1205
      9 C5          0.3286   -1.9229   -4.1524 C.3       1 <0>        -0.1963
     10 C6          0.6430   -2.9468   -3.0923 C.2       1 <0>         0.4916
     11 O2          1.3182   -2.6360   -2.1258 O.co2     1 <0>        -0.6940
     12 O3          0.2222   -4.0859   -3.2010 O.co2     1 <0>        -0.6858
     13 C7          0.6610    0.4400   -4.8271 C.2       1 <0>        -0.1418
     14 C8          1.5639    0.8916   -5.7316 C.2       1 <0>        -0.1520
     15 C9          1.1604    1.8149   -6.6779 C.2       1 <0>        -0.1485
     16 C10        -0.1262    2.2414   -6.6733 C.2       1 <0>        -0.1786
     17 S1         -0.8148    1.3232   -5.3057 S.3       1 <0>         0.0187
     18 N2          0.6397    2.3592    0.1711 N.4       1 <0>        -0.6176
     19 H3         -1.1670    2.8398   -1.7615 H         1 <0>         0.0884
     20 H4         -2.0247    1.2856   -1.6311 H         1 <0>         0.1111
     21 H5         -2.0145    2.4147   -0.2551 H         1 <0>         0.0943
     22 H6         -0.7593   -0.4829   -2.3300 H         1 <0>         0.4074
     23 H7         -0.7504   -1.8698   -4.2976 H         1 <0>         0.0705
     24 H8          0.8074   -2.2104   -5.0885 H         1 <0>         0.0870
     25 H9          2.5834    0.5356   -5.7131 H         1 <0>         0.1352
     26 H10         1.8599    2.1911   -7.4097 H         1 <0>         0.1344
     27 H11        -0.6103    2.9498   -7.3292 H         1 <0>         0.1845
     28 H12         0.1011    2.7213    0.9437 H         1 <0>         0.4375
     29 H13         1.4803    1.9247    0.5214 H         1 <0>         0.4432
     30 H14         0.8857    3.1148   -0.4507 H         1 <0>         0.4369
@<TRIPOS>BOND
     1    1    2 1
     2    1   19 1
     3    1   20 1
     4    1   21 1
     5    2    3 1
     6    2    4 1
     7    2   18 1
     8    4    5 2
     9    4    6 am
    10    6    7 1
    11    6   22 1
    12    7    8 1
    13    7    9 1
    14    7   13 1
    15    9   10 1
    16    9   23 1
    17    9   24 1
    18   10   11 2
    19   10   12 1
    20   13   17 1
    21   13   14 2
    22   14   15 1
    23   14   25 1
    24   15   16 2
    25   15   26 1
    26   16   17 1
    27   16   27 1
    28   18   28 1
    29   18   29 1
    30   18   30 1
@<TRIPOS>MOLECULE
ZINC40481696
   33    33     0     0     0
SMALL
USER_CHARGES

@<TRIPOS>ATOM
      1 C1         -0.0187    1.5258    0.0104 C.3       1 <0>        -0.1811
      2 C2          0.0021   -0.0041    0.0020 C.3       1 <0>         0.0498
      3 H1          0.5293   -0.3651    0.8851 H         1 <0>         0.1447
      4 C3         -1.4333   -0.5336    0.0129 C.3       1 <0>        -0.1711
      5 C4         -1.4136   -2.0361    0.1285 C.2       1 <0>         0.5095
      6 O1         -0.3556   -2.6253    0.1955 O.2       1 <0>        -0.5432
      7 N1         -2.5716   -2.7250    0.1573 N.am      1 <0>        -0.6813
      8 C5         -2.5524   -4.1856    0.2696 C.3       1 <0>         0.1283
      9 C6         -1.8505   -4.5880    1.5682 C.3       1 <0>        -0.1420
     10 C7         -3.9878   -4.7152    0.2805 C.3       1 <0>        -0.1509
     11 C8         -4.4673   -5.4306    1.5451 C.3       1 <0>        -0.1931
     12 C9         -4.1809   -6.2329    0.2742 C.3       1 <0>        -0.1506
     13 C10        -1.8102   -4.7700   -0.9045 C.2       1 <0>         0.5115
     14 O2         -1.3408   -4.0347   -1.7562 O.co2     1 <0>        -0.6951
     15 O3         -1.6791   -5.9782   -1.0027 O.co2     1 <0>        -0.6748
     16 N2          0.6897   -0.4778   -1.2066 N.4       1 <0>        -0.6346
     17 H2          1.0039    1.9031    0.0027 H         1 <0>         0.0824
     18 H3         -0.5459    1.8868   -0.8726 H         1 <0>         0.0806
     19 H4         -0.5289    1.8773    0.9072 H         1 <0>         0.1032
     20 H5         -1.9701   -0.1109    0.8621 H         1 <0>         0.1304
     21 H6         -1.9334   -0.2470   -0.9122 H         1 <0>         0.1126
     22 H7         -3.4177   -2.2538    0.1036 H         1 <0>         0.3922
     23 H8         -2.3873   -4.1653    2.4175 H         1 <0>         0.0438
     24 H9         -1.8362   -5.6747    1.6518 H         1 <0>         0.0694
     25 H10        -0.8279   -4.2107    1.5605 H         1 <0>         0.0671
     26 H11        -4.7151   -4.1130   -0.2639 H         1 <0>         0.0962
     27 H12        -3.7601   -5.5240    2.3693 H         1 <0>         0.0976
     28 H13        -5.5103   -5.2991    1.8329 H         1 <0>         0.0866
     29 H14        -5.0355   -6.6292   -0.2741 H         1 <0>         0.0869
     30 H15        -3.2853   -6.8541    0.2623 H         1 <0>         0.1196
     31 H16         1.6363   -0.1286   -1.2138 H         1 <0>         0.4281
     32 H17         0.7033   -1.4867   -1.2121 H         1 <0>         0.4513
     33 H18         0.2017   -0.1436   -2.0240 H         1 <0>         0.4262
@<TRIPOS>BOND
     1    1    2 1
     2    1   17 1
     3    1   18 1
     4    1   19 1
     5    2    3 1
     6    2    4 1
     7    2   16 1
     8    4    5 1
     9    4   20 1
    10    4   21 1
    11    5    6 2
    12    5    7 am
    13    7    8 1
    14    7   22 1
    15    8    9 1
    16    8   10 1
    17    8   13 1
    18    9   23 1
    19    9   24 1
    20    9   25 1
    21   10   12 1
    22   10   11 1
    23   10   26 1
    24   11   12 1
    25   11   27 1
    26   11   28 1
    27   12   29 1
    28   12   30 1
    29   13   14 2
    30   13   15 1
    31   16   31 1
    32   16   32 1
    33   16   33 1
@<TRIPOS>MOLECULE
ZINC42430642
   36    36     0     0     0
SMALL
USER_CHARGES

@<TRIPOS>ATOM
      1 C1         -0.0187    1.5258    0.0104 C.3       1 <0>        -0.1163
      2 C2          1.4167    2.0553   -0.0004 C.3       1 <0>        -0.1299
      3 C3          2.1567    1.5485    1.2391 C.3       1 <0>        -0.1308
      4 C4          2.1775    0.0187    1.2307 C.3       1 <0>         0.1271
      5 H1          2.7046   -0.3424    2.1137 H         1 <0>         0.1128
      6 C5          0.7421   -0.5109    1.2415 C.3       1 <0>         0.0205
      7 H2          0.2319   -0.1594    2.1383 H         1 <0>         0.1552
      8 C6          0.0021   -0.0041    0.0020 C.3       1 <0>        -0.1425
      9 N1          0.7620   -1.9797    1.2335 N.4       1 <0>        -0.6361
     10 N2          2.8632   -0.4538    0.0254 N.am      1 <0>        -0.7570
     11 C7          4.2063   -0.5642    0.0137 C.2       1 <0>         0.5150
     12 O1          4.8474   -0.2725    1.0011 O.2       1 <0>        -0.5045
     13 C8          4.9117   -1.0502   -1.2261 C.3       1 <0>        -0.1412
     14 C9          6.4206   -1.0826   -0.9749 C.3       1 <0>        -0.0801
     15 C10         7.1367   -1.5760   -2.2337 C.3       1 <0>        -0.1852
     16 C11         8.6229   -1.6079   -1.9863 C.2       1 <0>         0.4860
     17 O2          9.0681   -1.2676   -0.9034 O.co2     1 <0>        -0.6951
     18 O3          9.3802   -1.9741   -2.8689 O.co2     1 <0>        -0.7022
     19 H3         -0.5289    1.8773    0.9072 H         1 <0>         0.0761
     20 H4         -0.5459    1.8868   -0.8726 H         1 <0>         0.0857
     21 H5          1.9269    1.7038   -0.8972 H         1 <0>         0.0721
     22 H6          1.4019    3.1452    0.0056 H         1 <0>         0.0799
     23 H7          3.1793    1.9258    1.2314 H         1 <0>         0.0920
     24 H8          1.6465    1.9000    2.1359 H         1 <0>         0.0816
     25 H9         -1.0205   -0.3814    0.0098 H         1 <0>         0.0924
     26 H10         0.5123   -0.3556   -0.8948 H         1 <0>         0.0861
     27 H11         1.2500   -2.3140    2.0509 H         1 <0>         0.4389
     28 H12        -0.1846   -2.3290    1.2406 H         1 <0>         0.4359
     29 H13         2.3505   -0.6871   -0.7643 H         1 <0>         0.3976
     30 H14         4.5629   -2.0529   -1.4732 H         1 <0>         0.0901
     31 H15         4.6958   -0.3760   -2.0549 H         1 <0>         0.0938
     32 H16         6.7694   -0.0799   -0.7279 H         1 <0>         0.0690
     33 H17         6.6366   -1.7569   -0.1462 H         1 <0>         0.0676
     34 H18         6.7879   -2.5787   -2.4807 H         1 <0>         0.0559
     35 H19         6.9208   -0.9018   -3.0625 H         1 <0>         0.0572
     36 H20         1.2343   -2.3051    0.4033 H         1 <0>         0.4321
@<TRIPOS>BOND
     1    1    8 1
     2    1    2 1
     3    1   19 1
     4    1   20 1
     5    2    3 1
     6    2   21 1
     7    2   22 1
     8    3    4 1
     9    3   23 1
    10    3   24 1
    11    4    5 1
    12    4    6 1
    13    4   10 1
    14    6    7 1
    15    6    8 1
    16    6    9 1
    17    8   25 1
    18    8   26 1
    19    9   27 1
    20    9   28 1
    21    9   36 1
    22   10   11 am
    23   10   29 1
    24   11   12 2
    25   11   13 1
    26   13   14 1
    27   13   30 1
    28   13   31 1
    29   14   15 1
    30   14   32 1
    31   14   33 1
    32   15   16 1
    33   15   34 1
    34   15   35 1
    35   16   17 2
    36   16   18 1
@<TRIPOS>MOLECULE
ZINC45709432
   39    39     0     0     0
SMALL
USER_CHARGES

@<TRIPOS>ATOM
      1 C1          0.8304    0.8017    0.0399 C.3       1 <0>        -0.1437
      2 C2          0.4978   -0.6846   -0.1051 C.3       1 <0>         0.0875
      3 H1          0.8239   -1.0368   -1.0837 H         1 <0>         0.0672
      4 C3         -1.0136   -0.8861    0.0331 C.3       1 <0>         0.0072
      5 N1         -1.3190   -2.3228   -0.0299 N.3       1 <0>        -0.5198
      6 C4         -0.6139   -3.0524    1.0340 C.3       1 <0>         0.0283
      7 C5          0.8935   -2.8292    0.8858 C.3       1 <0>         0.1181
      8 O1          1.1688   -1.4261    0.9173 O.3       1 <0>        -0.3773
      9 C6          1.6278   -3.5200    2.0366 C.3       1 <0>        -0.1396
     10 C7          1.3676   -3.4121   -0.4470 C.3       1 <0>        -0.1677
     11 C8         -2.7675   -2.5567    0.0422 C.3       1 <0>         0.0798
     12 C9         -3.4025   -2.2457   -1.3146 C.3       1 <0>         0.1130
     13 C10        -2.7131   -3.0725   -2.4018 C.3       1 <0>        -0.1271
     14 C11        -4.8687   -2.5918   -1.2741 C.2       1 <0>         0.4876
     15 O2         -5.2737   -3.4250   -0.4915 O.2       1 <0>        -0.5359
     16 N2         -5.7298   -1.9754   -2.1078 N.am      1 <0>        -0.8560
     17 N3         -3.2449   -0.8160   -1.6128 N.3       1 <0>        -0.8213
     18 H2          1.9067    0.9443   -0.0570 H         1 <0>         0.0633
     19 H3          0.3175    1.3664   -0.7386 H         1 <0>         0.0724
     20 H4          0.5040    1.1533    1.0187 H         1 <0>         0.0594
     21 H5         -1.3484   -0.4844    0.9895 H         1 <0>         0.0302
     22 H6         -1.5254   -0.3693   -0.7787 H         1 <0>         0.1310
     23 H7         -0.9423   -2.6853    2.0064 H         1 <0>         0.0401
     24 H8         -0.8339   -4.1169    0.9528 H         1 <0>         0.0835
     25 H9          1.4151   -4.5888    2.0138 H         1 <0>         0.0715
     26 H10         2.7009   -3.3607    1.9305 H         1 <0>         0.0666
     27 H11         1.2906   -3.1025    2.9854 H         1 <0>         0.0613
     28 H12         0.8452   -2.9179   -1.2661 H         1 <0>         0.0714
     29 H13         2.4408   -3.2529   -0.5519 H         1 <0>         0.0570
     30 H14         1.1547   -4.4808   -0.4725 H         1 <0>         0.0627
     31 H15        -2.9548   -3.5990    0.3007 H         1 <0>         0.0905
     32 H16        -3.2026   -1.9097    0.8039 H         1 <0>         0.0391
     33 H17        -2.8301   -4.1334   -2.1805 H         1 <0>         0.0644
     34 H18        -3.1655   -2.8510   -3.3684 H         1 <0>         0.0518
     35 H19        -1.6527   -2.8222   -2.4311 H         1 <0>         0.0930
     36 H20        -5.4058   -1.3090   -2.7338 H         1 <0>         0.3981
     37 H21        -6.6735   -2.1981   -2.0818 H         1 <0>         0.4039
     38 H22        -3.5988   -0.5972   -2.5320 H         1 <0>         0.3421
     39 H23        -3.6920   -0.2483   -0.9086 H         1 <0>         0.3463
@<TRIPOS>BOND
     1    1    2 1
     2    1   18 1
     3    1   19 1
     4    1   20 1
     5    2    3 1
     6    2    8 1
     7    2    4 1
     8    4    5 1
     9    4   21 1
    10    4   22 1
    11    5    6 1
    12    5   11 1
    13    6    7 1
    14    6   23 1
    15    6   24 1
    16    7    8 1
    17    7    9 1
    18    7   10 1
    19    9   25 1
    20    9   26 1
    21    9   27 1
    22   10   28 1
    23   10   29 1
    24   10   30 1
    25   11   12 1
    26   11   31 1
    27   11   32 1
    28   12   13 1
    29   12   14 1
    30   12   17 1
    31   13   33 1
    32   13   34 1
    33   13   35 1
    34   14   15 2
    35   14   16 am
    36   16   36 1
    37   16   37 1
    38   17   38 1
    39   17   39 1
@<TRIPOS>MOLECULE
ZINC58854899
   33    32     0     0     0
SMALL
USER_CHARGES

@<TRIPOS>ATOM
      1 C1         -0.0187    1.5258    0.0104 C.3       1 <0>        -0.1536
      2 C2          0.0021   -0.0041    0.0020 C.3       1 <0>        -0.1319
      3 C3          0.7182   -0.4975   -1.2568 C.3       1 <0>         0.1384
      4 H1          1.7103   -0.0491   -1.3098 H         1 <0>         0.0884
      5 C4          0.8493   -2.0210   -1.2049 C.3       1 <0>        -0.1648
      6 N1         -0.0549   -0.1139   -2.4405 N.am      1 <0>        -0.7282
      7 C5          0.5610    0.0279   -3.6309 C.2       1 <0>         0.5109
      8 O1          1.7554   -0.1622   -3.7221 O.2       1 <0>        -0.5333
      9 C6         -0.2343    0.4225   -4.8486 C.3       1 <0>        -0.1413
     10 C7          0.6974    0.5131   -6.0589 C.3       1 <0>        -0.0900
     11 C8         -0.1101    0.9138   -7.2952 C.3       1 <0>        -0.1342
     12 C9          0.8075    1.0031   -8.4872 C.2       1 <0>         0.5107
     13 O2          1.9908    0.7693   -8.3605 O.2       1 <0>        -0.5217
     14 N2          0.3132    1.3427   -9.6942 N.am      1 <0>        -0.5833
     15 N3          1.1450    1.4237  -10.7747 N.3       1 <0>        -0.6056
     16 H2          1.0039    1.9031    0.0027 H         1 <0>         0.0559
     17 H3         -0.5459    1.8868   -0.8726 H         1 <0>         0.0543
     18 H4         -0.5289    1.8773    0.9072 H         1 <0>         0.0570
     19 H5          0.5293   -0.3651    0.8851 H         1 <0>         0.0788
     20 H6         -1.0205   -0.3814    0.0098 H         1 <0>         0.0676
     21 H7         -0.1428   -2.4694   -1.1520 H         1 <0>         0.0561
     22 H8          1.3594   -2.3725   -2.1017 H         1 <0>         0.0609
     23 H9          1.4245   -2.3064   -0.3242 H         1 <0>         0.0659
     24 H10        -1.0102    0.0381   -2.3676 H         1 <0>         0.3989
     25 H11        -1.0041   -0.3256   -5.0379 H         1 <0>         0.0941
     26 H12        -0.7034    1.3915   -4.6778 H         1 <0>         0.0948
     27 H13         1.4672    1.2612   -5.8696 H         1 <0>         0.0803
     28 H14         1.1665   -0.4558   -6.2296 H         1 <0>         0.0788
     29 H15        -0.8799    0.1657   -7.4845 H         1 <0>         0.0945
     30 H16        -0.5792    1.8827   -7.1244 H         1 <0>         0.0973
     31 H17        -0.6332    1.5297   -9.7956 H         1 <0>         0.4003
     32 H18         1.6409    0.5562  -10.9151 H         1 <0>         0.3469
     33 H19         0.6351    1.6870  -11.6046 H         1 <0>         0.3571
@<TRIPOS>BOND
     1    1    2 1
     2    1   16 1
     3    1   17 1
     4    1   18 1
     5    2    3 1
     6    2   19 1
     7    2   20 1
     8    3    4 1
     9    3    5 1
    10    3    6 1
    11    5   21 1
    12    5   22 1
    13    5   23 1
    14    6    7 am
    15    6   24 1
    16    7    8 2
    17    7    9 1
    18    9   10 1
    19    9   25 1
    20    9   26 1
    21   10   11 1
    22   10   27 1
    23   10   28 1
    24   11   12 1
    25   11   29 1
    26   11   30 1
    27   12   13 2
    28   12   14 am
    29   14   15 1
    30   14   31 1
    31   15   32 1
    32   15   33 1
@<TRIPOS>MOLECULE
ZINC35279474
   35    36     0     0     0
SMALL
USER_CHARGES

@<TRIPOS>ATOM
      1 C1          1.0301   -0.3500   -0.8600 C.ar      1 <0>        -0.0946
      2 C2          2.2143    0.3577   -0.8497 C.ar      1 <0>        -0.1075
      3 C3          2.3889    1.4102    0.0324 C.ar      1 <0>         0.0417
      4 C4          1.3698    1.7608    0.9147 C.ar      1 <0>         0.1863
      5 C5          0.1783    1.0558    0.9107 C.ar      1 <0>        -0.1477
      6 C6          0.0030   -0.0057    0.0206 C.ar      1 <0>        -0.0913
      7 C7         -1.2660   -0.7621    0.0106 C.2       1 <0>         0.5661
      8 O1         -1.2514   -1.9723   -0.1032 O.2       1 <0>        -0.5277
      9 N1         -2.4399   -0.1104    0.1275 N.am      1 <0>        -0.6051
     10 C8         -2.4836    1.3582    0.1313 C.3       1 <0>         0.0930
     11 C9         -3.4702    1.8250   -0.9437 C.3       1 <0>        -0.1362
     12 C10        -4.8264    1.1551   -0.7112 C.3       1 <0>        -0.1022
     13 C11        -4.6731   -0.3635   -0.8229 C.3       1 <0>        -0.1247
     14 H1         -4.2840   -0.6183   -1.8086 H         1 <0>         0.1044
     15 C12        -3.7008   -0.8550    0.2474 C.3       1 <0>         0.1219
     16 C13        -6.0151   -1.0203   -0.6266 C.2       1 <0>         0.5249
     17 O2         -6.9980   -0.3411   -0.4178 O.2       1 <0>        -0.5370
     18 N2         -6.1232   -2.3625   -0.6830 N.am      1 <0>        -0.8543
     19 N3          1.5502    2.8247    1.8047 N.pl3     1 <0>        -0.8708
     20 F1          3.5512    2.0989    0.0378 F         1 <0>        -0.1374
     21 H2          0.8959   -1.1677   -1.5527 H         1 <0>         0.1397
     22 H3          3.0078    0.0895   -1.5316 H         1 <0>         0.1442
     23 H4         -0.6132    1.3257    1.5942 H         1 <0>         0.1394
     24 H5         -2.8137    1.7114    1.1083 H         1 <0>         0.0741
     25 H6         -1.4916    1.7539   -0.0865 H         1 <0>         0.1003
     26 H7         -3.5846    2.9075   -0.8872 H         1 <0>         0.0843
     27 H8         -3.0924    1.5495   -1.9284 H         1 <0>         0.0707
     28 H9         -5.1921    1.4110    0.2833 H         1 <0>         0.0745
     29 H10        -5.5371    1.5044   -1.4602 H         1 <0>         0.0773
     30 H11        -3.5116   -1.9191    0.1061 H         1 <0>         0.0997
     31 H12        -4.1323   -0.6863    1.2340 H         1 <0>         0.0766
     32 H13        -5.3371   -2.9058   -0.8500 H         1 <0>         0.4036
     33 H14        -6.9870   -2.7853   -0.5566 H         1 <0>         0.4039
     34 H15         2.3852    3.3183    1.8076 H         1 <0>         0.4052
     35 H16         0.8403    3.0687    2.4191 H         1 <0>         0.4047
@<TRIPOS>BOND
     1    1    6 ar
     2    1    2 ar
     3    1   21 1
     4    2    3 ar
     5    2   22 1
     6    3    4 ar
     7    3   20 1
     8    4    5 ar
     9    4   19 1
    10    5    6 ar
    11    5   23 1
    12    6    7 1
    13    7    8 2
    14    7    9 am
    15    9   15 1
    16    9   10 1
    17   10   11 1
    18   10   24 1
    19   10   25 1
    20   11   12 1
    21   11   26 1
    22   11   27 1
    23   12   13 1
    24   12   28 1
    25   12   29 1
    26   13   14 1
    27   13   15 1
    28   13   16 1
    29   15   30 1
    30   15   31 1
    31   16   17 2
    32   16   18 am
    33   18   32 1
    34   18   33 1
    35   19   34 1
    36   19   35 1
@<TRIPOS>MOLECULE
ZINC39084852
   30    30     0     0     0
SMALL
USER_CHARGES

@<TRIPOS>ATOM
      1 C1         -0.0184    1.5028    0.0103 C.3       1 <0>        -0.1770
      2 C2          0.0021   -0.0041    0.0020 C.2       1 <0>         0.5137
      3 O1          1.0605   -0.5961   -0.0113 O.2       1 <0>        -0.5439
      4 N1         -1.1558   -0.6938    0.0094 N.am      1 <0>        -0.7325
      5 C3         -1.1360   -2.1586    0.0013 C.3       1 <0>         0.1209
      6 C4         -2.5713   -2.6882    0.0122 C.3       1 <0>        -0.1269
      7 H1         -3.1267   -2.2652    0.8493 H         1 <0>         0.0975
      8 C5         -3.2789   -2.3640   -1.3270 C.3       1 <0>        -0.0878
      9 C6         -4.3966   -3.4344   -1.3909 C.3       1 <0>        -0.1627
     10 H2         -5.2480   -3.1339   -0.7802 H         1 <0>         0.0779
     11 C7         -3.7382   -4.7038   -0.8121 C.3       1 <0>        -0.1158
     12 C8         -2.5778   -4.2292    0.0836 C.3       1 <0>         0.0245
     13 H3         -1.6329   -4.6242   -0.2897 H         1 <0>         0.1452
     14 N2         -2.7951   -4.6678    1.4686 N.4       1 <0>        -0.6324
     15 C9         -4.8266   -3.6634   -2.8170 C.2       1 <0>         0.4936
     16 O2         -5.2425   -4.7569   -3.1602 O.co2     1 <0>        -0.6902
     17 O3         -4.7587   -2.7551   -3.6275 O.co2     1 <0>        -0.6813
     18 H4          1.0042    1.8801    0.0026 H         1 <0>         0.0951
     19 H5         -0.5455    1.8639   -0.8728 H         1 <0>         0.0932
     20 H6         -0.5286    1.8543    0.9071 H         1 <0>         0.0892
     21 H7         -2.0023   -0.2203    0.0200 H         1 <0>         0.4064
     22 H8         -0.6258   -2.5101   -0.8955 H         1 <0>         0.0806
     23 H9         -0.6088   -2.5197    0.8844 H         1 <0>         0.0639
     24 H10        -3.7053   -1.3611   -1.3057 H         1 <0>         0.0818
     25 H11        -2.5900   -2.4743   -2.1645 H         1 <0>         0.0844
     26 H12        -4.4618   -5.2619   -0.2179 H         1 <0>         0.0794
     27 H13        -3.3569   -5.3282   -1.6200 H         1 <0>         0.1074
     28 H14        -3.6822   -4.3169    1.7973 H         1 <0>         0.4320
     29 H15        -2.7978   -5.6761    1.5056 H         1 <0>         0.4350
     30 H16        -2.0547   -4.3117    2.0543 H         1 <0>         0.4287
@<TRIPOS>BOND
     1    1    2 1
     2    1   18 1
     3    1   19 1
     4    1   20 1
     5    2    3 2
     6    2    4 am
     7    4    5 1
     8    4   21 1
     9    5    6 1
    10    5   22 1
    11    5   23 1
    12    6    7 1
    13    6   12 1
    14    6    8 1
    15    8    9 1
    16    8   24 1
    17    8   25 1
    18    9   10 1
    19    9   11 1
    20    9   15 1
    21   11   12 1
    22   11   26 1
    23   11   27 1
    24   12   13 1
    25   12   14 1
    26   14   28 1
    27   14   29 1
    28   14   30 1
    29   15   16 2
    30   15   17 1
@<TRIPOS>MOLECULE
ZINC40924734
   35    34     0     0     0
SMALL
USER_CHARGES

@<TRIPOS>ATOM
      1 C1         -0.0187    1.5258    0.0104 C.3       1 <0>        -0.1489
      2 C2          0.0021   -0.0041    0.0020 C.3       1 <0>        -0.1358
      3 C3          0.7182   -0.4975   -1.2568 C.3       1 <0>        -0.0979
      4 C4          0.7390   -2.0273   -1.2652 C.3       1 <0>         0.0968
      5 C5          1.4790   -2.5342   -0.0257 C.3       1 <0>        -0.1454
      6 C6         -0.6748   -2.5489   -1.2545 C.2       1 <0>         0.5043
      7 O1         -1.0728   -3.2503   -2.1689 O.co2     1 <0>        -0.6874
      8 O2         -1.4207   -2.2696   -0.3314 O.co2     1 <0>        -0.6686
      9 N1          1.4247   -2.4998   -2.4705 N.am      1 <0>        -0.7010
     10 C7          1.5637   -3.8219   -2.6922 C.2       1 <0>         0.5034
     11 O3          1.1212   -4.6205   -1.8939 O.2       1 <0>        -0.4571
     12 C8          2.2691   -4.3079   -3.9321 C.3       1 <0>         0.0434
     13 C9          3.7780   -4.3403   -3.6809 C.3       1 <0>        -0.1698
     14 C10         1.7795   -5.7154   -4.2789 C.3       1 <0>        -0.1615
     15 N2          1.9781   -3.3992   -5.0490 N.4       1 <0>        -0.6301
     16 H1          1.0039    1.9031    0.0027 H         1 <0>         0.0430
     17 H2         -0.5459    1.8868   -0.8726 H         1 <0>         0.0478
     18 H3         -0.5289    1.8773    0.9072 H         1 <0>         0.0536
     19 H4          0.5293   -0.3651    0.8851 H         1 <0>         0.0599
     20 H5         -1.0205   -0.3814    0.0098 H         1 <0>         0.1096
     21 H6          0.1910   -0.1364   -2.1398 H         1 <0>         0.0563
     22 H7          1.7408   -0.1202   -1.2645 H         1 <0>         0.0509
     23 H8          0.9688   -2.1826    0.8711 H         1 <0>         0.0767
     24 H9          1.4937   -3.6240   -0.0317 H         1 <0>         0.0664
     25 H10         2.5015   -2.1569   -0.0334 H         1 <0>         0.0401
     26 H11         1.7786   -1.8611   -3.1090 H         1 <0>         0.3736
     27 H12         3.9939   -5.0145   -2.8521 H         1 <0>         0.1109
     28 H13         4.2882   -4.6918   -4.5777 H         1 <0>         0.0907
     29 H14         4.1268   -3.3376   -3.4339 H         1 <0>         0.0832
     30 H15         0.7045   -5.6923   -4.4578 H         1 <0>         0.0901
     31 H16         2.2897   -6.0669   -5.1757 H         1 <0>         0.0838
     32 H17         1.9954   -6.3896   -3.4501 H         1 <0>         0.1136
     33 H18         2.3010   -2.4710   -4.8204 H         1 <0>         0.4279
     34 H19         2.4503   -3.7246   -5.8792 H         1 <0>         0.4331
     35 H20         0.9830   -3.3778   -5.2147 H         1 <0>         0.4443
@<TRIPOS>BOND
     1    1    2 1
     2    1   16 1
     3    1   17 1
     4    1   18 1
     5    2    3 1
     6    2   19 1
     7    2   20 1
     8    3    4 1
     9    3   21 1
    10    3   22 1
    11    4    5 1
    12    4    6 1
    13    4    9 1
    14    5   23 1
    15    5   24 1
    16    5   25 1
    17    6    7 2
    18    6    8 1
    19    9   10 am
    20    9   26 1
    21   10   11 2
    22   10   12 1
    23   12   13 1
    24   12   14 1
    25   12   15 1
    26   13   27 1
    27   13   28 1
    28   13   29 1
    29   14   30 1
    30   14   31 1
    31   14   32 1
    32   15   33 1
    33   15   34 1
    34   15   35 1
@<TRIPOS>MOLECULE
ZINC44846172
   32    31     0     0     0
SMALL
USER_CHARGES

@<TRIPOS>ATOM
      1 C1          0.6953   -1.7745    0.9059 C.3       1 <0>        -0.1537
      2 C2          0.5119   -1.8762   -0.6096 C.3       1 <0>        -0.1023
      3 C3          0.5963   -0.4795   -1.2285 C.3       1 <0>        -0.0991
      4 H1         -0.1195    0.1795   -0.7371 H         1 <0>         0.1110
      5 C4          0.2764   -0.5613   -2.6988 C.2       1 <0>         0.2853
      6 S1          1.4570   -0.5292   -3.7768 S.2       1 <0>        -0.4142
      7 N1         -1.0047   -0.6616   -3.1052 N.pl3     1 <0>        -0.7768
      8 C5          1.9889    0.0671   -1.0470 C.2       1 <0>         0.5498
      9 O1          2.9327   -0.6909   -0.9714 O.2       1 <0>        -0.5068
     10 N2          2.1856    1.3981   -0.9686 N.am      1 <0>        -0.7108
     11 C6          3.5471    1.9346   -0.9006 C.3       1 <0>         0.1300
     12 H2          4.2114    1.3179   -1.5060 H         1 <0>         0.1192
     13 C7          4.0266    1.9262    0.5523 C.3       1 <0>        -0.1603
     14 C8          3.5570    3.3475   -1.4247 C.2       1 <0>         0.5117
     15 O2          2.5281    3.8562   -1.8165 O.2       1 <0>        -0.5341
     16 N3          4.7093    4.0458   -1.4581 N.am      1 <0>        -0.7293
     17 C9          4.7190    5.4193   -1.9676 C.3       1 <0>         0.0860
     18 H3          1.7050   -1.4286    1.1273 H         1 <0>         0.0644
     19 H4         -0.0281   -1.0680    1.3129 H         1 <0>         0.0550
     20 H5          0.5398   -2.7543    1.3573 H         1 <0>         0.0660
     21 H6          1.2955   -2.5073   -1.0289 H         1 <0>         0.0904
     22 H7         -0.4625   -2.3126   -0.8292 H         1 <0>         0.0718
     23 H8         -1.7208   -0.6811   -2.4513 H         1 <0>         0.3984
     24 H9         -1.2105   -0.7143   -4.0517 H         1 <0>         0.4215
     25 H10         1.4257    2.0008   -0.9573 H         1 <0>         0.4062
     26 H11         4.0194    0.9043    0.9314 H         1 <0>         0.0779
     27 H12         5.0396    2.3254    0.6029 H         1 <0>         0.0717
     28 H13         3.3623    2.5430    1.1577 H         1 <0>         0.0632
     29 H14         5.5322    3.6390   -1.1447 H         1 <0>         0.4053
     30 H15         4.0547    6.0361   -1.3622 H         1 <0>         0.0615
     31 H16         5.7320    5.8185   -1.9169 H         1 <0>         0.0789
     32 H17         4.3774    5.4253   -3.0026 H         1 <0>         0.0620
@<TRIPOS>BOND
     1    1    2 1
     2    1   18 1
     3    1   19 1
     4    1   20 1
     5    2    3 1
     6    2   21 1
     7    2   22 1
     8    3    4 1
     9    3    5 1
    10    3    8 1
    11    5    6 2
    12    5    7 1
    13    7   23 1
    14    7   24 1
    15    8    9 2
    16    8   10 am
    17   10   11 1
    18   10   25 1
    19   11   12 1
    20   11   13 1
    21   11   14 1
    22   13   26 1
    23   13   27 1
    24   13   28 1
    25   14   15 2
    26   14   16 am
    27   16   17 1
    28   16   29 1
    29   17   30 1
    30   17   31 1
    31   17   32 1
@<TRIPOS>MOLECULE
ZINC62053656
   31    31     0     0     0
SMALL
USER_CHARGES

@<TRIPOS>ATOM
      1 C1         -0.0187    1.5258    0.0104 C.3       1 <0>        -0.1664
      2 C2          0.0021   -0.0041    0.0020 C.3       1 <0>         0.1445
      3 H1         -1.0205   -0.3814    0.0098 H         1 <0>         0.0970
      4 C3          0.7421   -0.5109    1.2415 C.3       1 <0>        -0.0890
      5 C4          0.6567   -2.0144    1.2978 C.ar      1 <0>        -0.0990
      6 C5         -0.3964   -2.6223    1.9554 C.ar      1 <0>        -0.0853
      7 C6         -0.4760   -4.0010    2.0072 C.ar      1 <0>        -0.1510
      8 C7          0.4996   -4.7736    1.4002 C.ar      1 <0>         0.0967
      9 C8          1.5539   -4.1636    0.7418 C.ar      1 <0>        -0.1492
     10 C9          1.6286   -2.7847    0.6868 C.ar      1 <0>        -0.0843
     11 F1          0.4231   -6.1215    1.4506 F         1 <0>        -0.1391
     12 N1          0.6878   -0.4765   -1.2033 N.am      1 <0>        -0.6909
     13 C10         0.0062   -0.6081   -2.3585 C.2       1 <0>         0.5175
     14 O1         -1.1755   -0.3353   -2.4003 O.2       1 <0>        -0.5190
     15 C11         0.7057   -1.0901   -3.5881 C.2       1 <0>         0.5054
     16 O2          1.8874   -1.3630   -3.5464 O.2       1 <0>        -0.5078
     17 N2          0.0241   -1.2217   -4.7434 N.am      1 <0>        -0.5464
     18 N3          0.6635   -1.6623   -5.8673 N.3       1 <0>        -0.5981
     19 H2          1.0039    1.9031    0.0027 H         1 <0>         0.0621
     20 H3         -0.5459    1.8868   -0.8726 H         1 <0>         0.0643
     21 H4         -0.5289    1.8773    0.9072 H         1 <0>         0.0733
     22 H5          1.7879   -0.2080    1.1895 H         1 <0>         0.0850
     23 H6          0.2852   -0.0874    2.1360 H         1 <0>         0.0978
     24 H7         -1.1571   -2.0196    2.4291 H         1 <0>         0.1338
     25 H8         -1.2987   -4.4757    2.5213 H         1 <0>         0.1363
     26 H9          2.3156   -4.7652    0.2682 H         1 <0>         0.1366
     27 H10         2.4485   -2.3087    0.1695 H         1 <0>         0.1310
     28 H11         1.6324   -0.6946   -1.1699 H         1 <0>         0.4117
     29 H12        -0.9205   -1.0036   -4.7768 H         1 <0>         0.4150
     30 H13         0.0281   -1.7097   -6.6496 H         1 <0>         0.3655
     31 H14         1.4591   -1.0801   -6.0823 H         1 <0>         0.3519
@<TRIPOS>BOND
     1    1    2 1
     2    1   19 1
     3    1   20 1
     4    1   21 1
     5    2    3 1
     6    2    4 1
     7    2   12 1
     8    4    5 1
     9    4   22 1
    10    4   23 1
    11    5   10 ar
    12    5    6 ar
    13    6    7 ar
    14    6   24 1
    15    7    8 ar
    16    7   25 1
    17    8    9 ar
    18    8   11 1
    19    9   10 ar
    20    9   26 1
    21   10   27 1
    22   12   13 am
    23   12   28 1
    24   13   14 2
    25   13   15 1
    26   15   16 2
    27   15   17 am
    28   17   18 1
    29   17   29 1
    30   18   30 1
    31   18   31 1
@<TRIPOS>MOLECULE
ZINC19260000
   25    25     0     0     0
SMALL
USER_CHARGES
2-amino-N-(3-chlorophenyl)ethanesulfonamide
@<TRIPOS>ATOM
      1 C1         -4.0376    0.1819    1.3677 C.ar      1 <0>        -0.0959
      2 C2         -2.8958    0.8462    0.9640 C.ar      1 <0>        -0.1466
      3 C3         -1.8961    1.1300    1.8857 C.ar      1 <0>         0.2135
      4 C4         -2.0524    0.7534    3.2136 C.ar      1 <0>        -0.1552
      5 C5         -3.1991    0.0932    3.6123 C.ar      1 <0>        -0.0228
      6 C6         -4.1910   -0.1920    2.6898 C.ar      1 <0>        -0.1552
      7 Cl1        -3.3961   -0.3782    5.2714 Cl        1 <0>        -0.0959
      8 N1         -0.7386    1.7978    1.4792 N.2       1 <0>        -1.0508
      9 S1          0.4252    0.9903    0.6214 S.o2      1 <0>         2.5094
     10 O1          1.4398    1.9574    0.3877 O.2       1 <0>        -0.9803
     11 O2         -0.2721    0.3951   -0.4643 O.2       1 <0>        -1.0190
     12 C7          1.0324   -0.2917    1.7520 C.3       1 <0>        -0.7108
     13 C8          2.0399   -1.1811    1.0207 C.3       1 <0>         0.0167
     14 N2          2.5316   -2.2193    1.9363 N.4       1 <0>        -0.6799
     15 H1         -4.8133   -0.0421    0.6504 H         1 <0>         0.1217
     16 H2         -2.7788    1.1415   -0.0682 H         1 <0>         0.1255
     17 H3         -1.2786    0.9759    3.9334 H         1 <0>         0.1219
     18 H4         -5.0867   -0.7074    3.0036 H         1 <0>         0.1213
     19 H5          1.5213    0.1827    2.6157 H         1 <0>         0.1324
     20 H6          0.1874   -0.9041    2.0998 H         1 <0>         0.1291
     21 H7          1.5510   -1.6555    0.1570 H         1 <0>         0.1331
     22 H8          2.8849   -0.5687    0.6730 H         1 <0>         0.1307
     23 H9          3.2559   -2.8587    1.4105 H         1 <0>         0.4500
     24 H10         1.6865   -2.8317    2.2840 H         1 <0>         0.4537
     25 H11         3.0205   -1.7449    2.8000 H         1 <0>         0.4532
@<TRIPOS>BOND
     1    1    6 ar
     2    1    2 ar
     3    1   15 1
     4    2    3 ar
     5    2   16 1
     6    3    4 ar
     7    3    8 1
     8    4    5 ar
     9    4   17 1
    10    5    6 ar
    11    5    7 1
    12    6   18 1
    13    8    9 1
    14    9   10 2
    15    9   11 2
    16    9   12 1
    17   12   13 1
    18   12   19 1
    19   12   20 1
    20   13   14 1
    21   13   21 1
    22   13   22 1
    23   14   23 1
    24   14   24 1
    25   14   25 1
@<TRIPOS>MOLECULE
ZINC42429930
   34    34     0     0     0
SMALL
USER_CHARGES

@<TRIPOS>ATOM
      1 C1         -0.0187    1.5270    0.0104 C.3       1 <0>        -0.1367
      2 C2          1.4188    2.0518   -0.0005 C.3       1 <0>         0.0528
      3 N1          2.1343    1.5477    1.1786 N.3       1 <0>        -0.5412
      4 C3          2.2082    0.0811    1.1680 C.3       1 <0>         0.0486
      5 C4          0.7943   -0.5026    1.2138 C.3       1 <0>        -0.1374
      6 C5          0.0021   -0.0041    0.0020 C.3       1 <0>         0.0233
      7 N2         -1.3738   -0.5141    0.0714 N.4       1 <0>        -0.6350
      8 C6          3.4744    2.1416    1.2751 C.3       1 <0>         0.0554
      9 C7          4.0904    1.7929    2.6315 C.3       1 <0>        -0.1157
     10 C8          5.4862    2.4115    2.7319 C.3       1 <0>        -0.0935
     11 C9          6.1022    2.0628    4.0883 C.3       1 <0>        -0.1827
     12 C10         7.4769    2.6721    4.1872 C.2       1 <0>         0.4858
     13 O1          7.9227    3.3249    3.2589 O.co2     1 <0>        -0.6993
     14 O2          8.1434    2.5124    5.1956 O.co2     1 <0>        -0.7041
     15 H1         -0.5279    1.8791    0.9076 H         1 <0>         0.0961
     16 H2         -0.5449    1.8886   -0.8730 H         1 <0>         0.0904
     17 H3          1.9231    1.7108   -0.9046 H         1 <0>         0.0446
     18 H4          1.4077    3.1416    0.0199 H         1 <0>         0.0969
     19 H5          2.7088   -0.2507    0.2584 H         1 <0>         0.0452
     20 H6          2.7705   -0.2605    2.0371 H         1 <0>         0.1036
     21 H7          0.8490   -1.5910    1.1901 H         1 <0>         0.0911
     22 H8          0.2979   -0.1824    2.1299 H         1 <0>         0.0963
     23 H9          0.4766   -0.3569   -0.9136 H         1 <0>         0.1383
     24 H10        -1.8966   -0.1808   -0.7247 H         1 <0>         0.4340
     25 H11        -1.3592   -1.5230    0.0658 H         1 <0>         0.4347
     26 H12         4.1046    1.7478    0.4777 H         1 <0>         0.0415
     27 H13         3.3996    3.2247    1.1777 H         1 <0>         0.0828
     28 H14         3.4602    2.1868    3.4288 H         1 <0>         0.0663
     29 H15         4.1652    0.7098    2.7289 H         1 <0>         0.0547
     30 H16         6.1164    2.0177    1.9346 H         1 <0>         0.0584
     31 H17         5.4114    3.4946    2.6345 H         1 <0>         0.0614
     32 H18         5.4719    2.4567    4.8856 H         1 <0>         0.0560
     33 H19         6.1769    0.9797    4.1857 H         1 <0>         0.0539
     34 H20        -1.8107   -0.1887    0.9207 H         1 <0>         0.4338
@<TRIPOS>BOND
     1    1    6 1
     2    1    2 1
     3    1   15 1
     4    1   16 1
     5    2    3 1
     6    2   17 1
     7    2   18 1
     8    3    4 1
     9    3    8 1
    10    4    5 1
    11    4   19 1
    12    4   20 1
    13    5    6 1
    14    5   21 1
    15    5   22 1
    16    6    7 1
    17    6   23 1
    18    7   24 1
    19    7   25 1
    20    7   34 1
    21    8    9 1
    22    8   26 1
    23    8   27 1
    24    9   10 1
    25    9   28 1
    26    9   29 1
    27   10   11 1
    28   10   30 1
    29   10   31 1
    30   11   12 1
    31   11   32 1
    32   11   33 1
    33   12   13 2
    34   12   14 1
@<TRIPOS>MOLECULE
ZINC50122177
   29    31     0     0     0
SMALL
NO_CHARGES

@<TRIPOS>ATOM
      1 C1         -0.0167    1.3776    0.0096 C.ar      1 <0>        -0.1738
      2 C2          1.1849    2.0698    0.0019 C.ar      1 <0>        -0.0739
      3 C3          2.3651    1.3426   -0.0133 C.ar      1 <0>        -0.1576
      4 C4          2.3054   -0.0383   -0.0202 C.ar      1 <0>         0.1197
      5 N1          1.1443   -0.6632   -0.0129 N.ar      1 <0>        -0.4883
      6 C5          0.0021   -0.0041    0.0020 C.ar      1 <0>         0.0884
      7 C6          3.6964    2.0488   -0.0227 C.3       1 <0>         0.2860
      8 C7          4.3187    2.0304    1.3604 C.cat     1 <0>        -0.0262
      9 N2          5.4993    1.3375    1.1990 N.pl3     1 <0>        -0.3219
     10 C8          5.6422    0.9507   -0.1036 C.cat     1 <0>        -0.0206
     11 N3          4.6628    1.3180   -0.8571 N.pl3     1 <0>        -0.6747
     12 C9          6.4607    1.0569    2.2682 C.3       1 <0>         0.0552
     13 C10         7.8076    0.4526    1.8664 C.3       1 <0>        -0.1706
     14 C11         6.7639   -0.4103    2.5784 C.3       1 <0>        -0.1759
     15 N4          3.8476    2.5482    2.4467 N.pl3     1 <0>        -0.8243
     16 H1         -0.9552    1.9117    0.0259 H         1 <0>         0.1322
     17 H2          1.2009    3.1496    0.0072 H         1 <0>         0.1307
     18 H3          3.2203   -0.6121   -0.0320 H         1 <0>         0.1491
     19 H4         -0.9294   -0.5505    0.0083 H         1 <0>         0.1518
     20 H5          6.4927    0.3931   -0.4670 H         1 <0>         0.1703
     21 H6          6.4518    1.7566    3.1039 H         1 <0>         0.1345
     22 H7          7.9785    0.2638    0.8065 H         1 <0>         0.1066
     23 H8          8.6853    0.7548    2.4377 H         1 <0>         0.1095
     24 H9          6.9550   -0.6758    3.6181 H         1 <0>         0.1075
     25 H10         6.2481   -1.1668    1.9869 H         1 <0>         0.1045
     26 H11         2.9978    3.0156    2.4324 H         1 <0>         0.4028
     27 H12         3.5824    3.0732   -0.3774 H         1 <0>         0.0485
     28 H13         4.3438    2.4694    3.2765 H         1 <0>         0.3861
     29 H14         4.5760    1.1428   -1.8072 H         1 <0>         0.4245
@<TRIPOS>BOND
     1    1    6 ar
     2    1    2 ar
     3    1   16 1
     4    2    3 ar
     5    2   17 1
     6    3    4 ar
     7    3    7 1
     8    4    5 ar
     9    4   18 1
    10    5    6 ar
    11    6   19 1
    12    7   27 1
    13    7   11 1
    14    7    8 1
    15    8    9 1
    16    8   15 2
    17    9   10 1
    18    9   12 1
    19   10   11 2
    20   10   20 1
    21   11   29 1
    22   12   14 1
    23   12   13 1
    24   12   21 1
    25   13   14 1
    26   13   22 1
    27   13   23 1
    28   14   24 1
    29   14   25 1
    30   15   26 1
    31   15   28 1
@<TRIPOS>MOLECULE
ZINC60509795
   25    25     0     0     0
SMALL
USER_CHARGES

@<TRIPOS>ATOM
      1 C1         -0.0187    1.5258    0.0104 C.3       1 <0>        -0.1748
      2 C2          0.0021   -0.0041    0.0020 C.3       1 <0>         0.1447
      3 C3          0.7421   -0.5109    1.2415 C.3       1 <0>        -0.0656
      4 C4          0.6567   -2.0144    1.2978 C.2       1 <0>        -0.1199
      5 C5         -0.3913   -2.6335    1.9528 C.2       1 <0>        -0.1545
      6 C6         -0.4382   -3.9878    1.9848 C.2       1 <0>        -0.1670
      7 S1          1.0297   -4.4299    1.0700 S.3       1 <0>         0.0332
      8 C7          1.6035   -2.7799    0.7020 C.2       1 <0>        -0.1748
      9 N1          0.6878   -0.4765   -1.2033 N.pl3     1 <0>        -1.1150
     10 S2         -0.1875   -0.8749   -2.5515 S.o2      1 <0>         2.7941
     11 O1          0.7512   -1.2650   -3.5445 O.2       1 <0>        -0.9837
     12 O2         -1.2362   -1.7295   -2.1169 O.2       1 <0>        -0.9761
     13 N2         -0.9046    0.5142   -3.0978 N.pl3     1 <0>        -1.2610
     14 H1          1.0039    1.9031    0.0027 H         1 <0>         0.0695
     15 H2         -0.5459    1.8868   -0.8726 H         1 <0>         0.0560
     16 H3         -0.5289    1.8773    0.9072 H         1 <0>         0.0759
     17 H4         -1.0205   -0.3814    0.0098 H         1 <0>         0.0959
     18 H5          1.7879   -0.2080    1.1895 H         1 <0>         0.0814
     19 H6          0.2852   -0.0874    2.1360 H         1 <0>         0.0884
     20 H7         -1.1610   -2.0469    2.4322 H         1 <0>         0.1340
     21 H8         -1.1728   -4.6322    2.4448 H         1 <0>         0.1857
     22 H9          2.4785   -2.4716    0.1491 H         1 <0>         0.1821
     23 H10         1.6545   -0.5560   -1.2117 H         1 <0>         0.4191
     24 H11        -1.0845    0.6274   -4.0442 H         1 <0>         0.4210
     25 H12        -1.1448    1.2148   -2.4713 H         1 <0>         0.4115
@<TRIPOS>BOND
     1    1    2 1
     2    1   14 1
     3    1   15 1
     4    1   16 1
     5    2    3 1
     6    2    9 1
     7    2   17 1
     8    3    4 1
     9    3   18 1
    10    3   19 1
    11    4    8 2
    12    4    5 1
    13    5    6 2
    14    5   20 1
    15    6    7 1
    16    6   21 1
    17    7    8 1
    18    8   22 1
    19    9   10 1
    20    9   23 1
    21   10   11 2
    22   10   12 2
    23   10   13 1
    24   13   24 1
    25   13   25 1
@<TRIPOS>MOLECULE
ZINC62842834
   33    33     0     0     0
SMALL
USER_CHARGES

@<TRIPOS>ATOM
      1 C1          0.2617    1.4963   -0.1503 C.3       1 <0>        -0.1775
      2 C2          0.0022   -0.0038    0.0020 C.3       1 <0>         0.0025
      3 H1         -1.0561   -0.1710    0.2023 H         1 <0>         0.1648
      4 C3          0.8213   -0.5415    1.1471 C.2       1 <0>         0.4932
      5 O1          1.8410   -1.1595    0.9256 O.2       1 <0>        -0.5425
      6 N1          0.4205   -0.3355    2.4173 N.am      1 <0>        -0.5690
      7 C4         -0.8691    0.3092    2.7002 C.3       1 <0>         0.0896
      8 C5         -1.6732   -0.5900    3.6445 C.3       1 <0>        -0.1051
      9 C6         -0.8360   -0.8939    4.8891 C.3       1 <0>        -0.1338
     10 C7          0.4369   -1.6387    4.4803 C.3       1 <0>        -0.1046
     11 C8          1.2622   -0.7569    3.5455 C.3       1 <0>         0.1050
     12 C9         -0.4592    0.4168    5.5825 C.3       1 <0>        -0.1275
     13 C10        -1.6367   -1.7504    5.8359 C.2       1 <0>         0.5003
     14 O2         -1.0695   -2.5402    6.5714 O.co2     1 <0>        -0.6886
     15 O3         -2.8517   -1.6535    5.8664 O.co2     1 <0>        -0.6927
     16 N2          0.3811   -0.6947   -1.2378 N.4       1 <0>        -0.6192
     17 H2          1.3283    1.6677   -0.2950 H         1 <0>         0.0890
     18 H3         -0.2874    1.8742   -1.0128 H         1 <0>         0.0954
     19 H4         -0.0712    2.0157    0.7483 H         1 <0>         0.1122
     20 H5         -0.6982    1.2760    3.1736 H         1 <0>         0.0881
     21 H6         -1.4202    0.4477    1.7701 H         1 <0>         0.0750
     22 H7         -2.5906   -0.0803    3.9388 H         1 <0>         0.0907
     23 H8         -1.9211   -1.5218    3.1364 H         1 <0>         0.0602
     24 H9          1.0213   -1.8754    5.3694 H         1 <0>         0.0902
     25 H10         0.1691   -2.5607    3.9642 H         1 <0>         0.0593
     26 H11         2.1168   -1.3216    3.1728 H         1 <0>         0.0930
     27 H12         1.6107    0.1211    4.0893 H         1 <0>         0.0812
     28 H13        -1.3657    0.9469    5.8749 H         1 <0>         0.0553
     29 H14         0.1371    0.2006    6.4690 H         1 <0>         0.0564
     30 H15         0.1194    1.0369    4.8978 H         1 <0>         0.0402
     31 H16         1.3608   -0.5399   -1.4232 H         1 <0>         0.4395
     32 H17         0.2100   -1.6840   -1.1373 H         1 <0>         0.4406
     33 H18        -0.1673   -0.3347   -2.0045 H         1 <0>         0.4390
@<TRIPOS>BOND
     1    1    2 1
     2    1   17 1
     3    1   18 1
     4    1   19 1
     5    2    3 1
     6    2    4 1
     7    2   16 1
     8    4    5 2
     9    4    6 am
    10    6   11 1
    11    6    7 1
    12    7    8 1
    13    7   20 1
    14    7   21 1
    15    8    9 1
    16    8   22 1
    17    8   23 1
    18    9   10 1
    19    9   12 1
    20    9   13 1
    21   10   11 1
    22   10   24 1
    23   10   25 1
    24   11   26 1
    25   11   27 1
    26   12   28 1
    27   12   29 1
    28   12   30 1
    29   13   14 2
    30   13   15 1
    31   16   31 1
    32   16   32 1
    33   16   33 1
@<TRIPOS>MOLECULE
ZINC02567350
   25    25     0     0     0
SMALL
USER_CHARGES
1-(4-aminophenyl)-N-methyl-methanesulfonamide
@<TRIPOS>ATOM
      1 C1          0.0976   -5.1374   -1.0116 C.3       1 <0>         0.0797
      2 N1          1.2341   -4.4343   -1.6117 N.pl3     1 <0>        -1.1265
      3 S1          1.2148   -2.7830   -1.7348 S.o2      1 <0>         2.6047
      4 O1         -0.0292   -2.4799   -2.3513 O.2       1 <0>        -0.9516
      5 O2          2.4398   -2.4528   -2.3747 O.2       1 <0>        -0.9544
      6 C2          1.2245   -2.1876   -0.0214 C.3       1 <0>        -0.5674
      7 C3          1.2080   -0.6807   -0.0131 C.ar      1 <0>        -0.1595
      8 C4          0.0021   -0.0041    0.0020 C.ar      1 <0>        -0.0517
      9 C5         -0.0167    1.3768    0.0096 C.ar      1 <0>        -0.1971
     10 C6          1.1777    2.0861    0.0020 C.ar      1 <0>         0.2277
     11 C7          2.3873    1.4033   -0.0123 C.ar      1 <0>        -0.1971
     12 C8          2.3988    0.0223   -0.0203 C.ar      1 <0>        -0.0518
     13 N2          1.1624    3.4827    0.0097 N.pl3     1 <0>        -0.8739
     14 H1         -0.0383   -4.7984    0.0154 H         1 <0>         0.0589
     15 H2         -0.8044   -4.9268   -1.5861 H         1 <0>         0.0694
     16 H3          0.2898   -6.2103   -1.0175 H         1 <0>         0.0837
     17 H4          1.9980   -4.9360   -1.9368 H         1 <0>         0.4184
     18 H5          2.1233   -2.5439    0.4820 H         1 <0>         0.1382
     19 H6          0.3435   -2.5634    0.4989 H         1 <0>         0.1360
     20 H7         -0.9261   -0.5561    0.0083 H         1 <0>         0.1295
     21 H8         -0.9588    1.9047    0.0170 H         1 <0>         0.1270
     22 H9          3.3177    1.9517   -0.0179 H         1 <0>         0.1270
     23 H10         3.3389   -0.5092   -0.0317 H         1 <0>         0.1296
     24 H11         0.3171    3.9585    0.0203 H         1 <0>         0.4006
     25 H12         1.9971    3.9769    0.0043 H         1 <0>         0.4006
@<TRIPOS>BOND
     1    1    2 1
     2    1   14 1
     3    1   15 1
     4    1   16 1
     5    2    3 1
     6    2   17 1
     7    3    4 2
     8    3    5 2
     9    3    6 1
    10    6    7 1
    11    6   18 1
    12    6   19 1
    13    7   12 ar
    14    7    8 ar
    15    8    9 ar
    16    8   20 1
    17    9   10 ar
    18    9   21 1
    19   10   11 ar
    20   10   13 1
    21   11   12 ar
    22   11   22 1
    23   12   23 1
    24   13   24 1
    25   13   25 1
@<TRIPOS>MOLECULE
ZINC20530728
   25    26     0     0     0
SMALL
USER_CHARGES

@<TRIPOS>ATOM
      1 C1         -0.0044    1.3772    0.1699 C.ar      1 <0>        -0.1084
      2 C2          1.1707    2.0861    0.0021 C.ar      1 <0>        -0.1013
      3 C3          2.3648    1.4131   -0.1737 C.ar      1 <0>        -0.1053
      4 C4          2.3843    0.0295   -0.1814 C.ar      1 <0>        -0.0244
      5 C5          1.2083   -0.6792   -0.0130 C.ar      1 <0>        -0.1044
      6 C6          0.0144   -0.0048    0.1623 C.ar      1 <0>        -0.0973
      7 C7          1.2286   -2.1860   -0.0218 C.3       1 <0>         0.2006
      8 H1          2.0793   -2.5477    0.5558 H         1 <0>         0.1212
      9 C8          1.3240   -2.6973   -1.4659 C.3       1 <0>        -0.1994
     10 C9          0.0077   -2.4518   -2.1576 C.2       1 <0>         0.5235
     11 O1         -0.0120   -2.2997   -3.3633 O.2       1 <0>        -0.5000
     12 N1         -1.1292   -2.3988   -1.4778 N.2       1 <0>        -0.6808
     13 C10        -1.1756   -2.5291   -0.1618 C.2       1 <0>         0.6985
     14 N2         -0.0235   -2.7060    0.5535 N.pl3     1 <0>        -0.7541
     15 N3         -2.3749   -2.4863    0.4831 N.pl3     1 <0>        -0.8160
     16 Cl1         3.8839   -0.8166   -0.4028 Cl        1 <0>        -0.0604
     17 H2         -0.9368    1.9036    0.3114 H         1 <0>         0.1319
     18 H3          1.1554    3.1659    0.0081 H         1 <0>         0.1363
     19 H4          3.2826    1.9669   -0.3054 H         1 <0>         0.1388
     20 H5         -0.9039   -0.5580    0.2933 H         1 <0>         0.1301
     21 H6          2.1171   -2.1643   -1.9903 H         1 <0>         0.1091
     22 H7          1.5427   -3.7652   -1.4615 H         1 <0>         0.1071
     23 H8         -2.4105   -2.5817    1.4477 H         1 <0>         0.4134
     24 H9         -3.1931   -2.3604   -0.0224 H         1 <0>         0.4287
     25 H10        -0.0298   -3.1603    1.4106 H         1 <0>         0.4126
@<TRIPOS>BOND
     1    1    6 ar
     2    1    2 ar
     3    1   17 1
     4    2    3 ar
     5    2   18 1
     6    3    4 ar
     7    3   19 1
     8    4    5 ar
     9    4   16 1
    10    5    6 ar
    11    5    7 1
    12    6   20 1
    13    7    8 1
    14    7    9 1
    15    7   14 1
    16    9   21 1
    17    9   22 1
    18    9   10 1
    19   10   12 1
    20   10   11 2
    21   12   13 2
    22   13   14 1
    23   13   15 1
    24   14   25 1
    25   15   24 1
    26   15   23 1
@<TRIPOS>MOLECULE
ZINC37389023
   27    27     0     0     0
SMALL
USER_CHARGES

@<TRIPOS>ATOM
      1 C1         -0.0184    1.5028    0.0103 C.3       1 <0>        -0.1116
      2 C2          0.0021   -0.0041    0.0020 C.2       1 <0>         0.1861
      3 C3         -1.1675   -0.7019    0.0037 C.2       1 <0>        -0.2662
      4 C4         -1.1127   -2.1111   -0.0047 C.2       1 <0>         0.5253
      5 O1         -2.1364   -2.7743   -0.0039 O.2       1 <0>        -0.5319
      6 N1          0.0972   -2.7104   -0.0141 N.am      1 <0>        -0.6303
      7 H1          0.1596   -3.6784   -0.0203 H         1 <0>         0.4184
      8 C5          1.2178   -1.9622   -0.0153 C.2       1 <0>         0.3968
      9 N2          1.1668   -0.6568   -0.0126 N.2       1 <0>        -0.5353
     10 C6          2.5603   -2.6467   -0.0259 C.3       1 <0>        -0.1136
     11 C7         -2.4922    0.0165    0.0149 C.3       1 <0>        -0.0370
     12 C8         -3.0078    0.1579   -1.4186 C.3       1 <0>        -0.1358
     13 C9         -4.3325    0.8763   -1.4075 C.2       1 <0>         0.5179
     14 O2         -4.8165    1.2395   -0.3564 O.2       1 <0>        -0.5413
     15 N3         -4.9793    1.1153   -2.5655 N.am      1 <0>        -0.8582
     16 H2          1.0042    1.8801    0.0026 H         1 <0>         0.0832
     17 H3         -0.5455    1.8639   -0.8728 H         1 <0>         0.0844
     18 H4         -0.5286    1.8543    0.9071 H         1 <0>         0.0885
     19 H5          2.8790   -2.8058   -1.0560 H         1 <0>         0.1019
     20 H6          3.2908   -2.0218    0.4880 H         1 <0>         0.1070
     21 H7          2.4823   -3.6076    0.4828 H         1 <0>         0.0889
     22 H8         -3.2099   -0.5539    0.6046 H         1 <0>         0.0859
     23 H9         -2.3653    1.0058    0.4546 H         1 <0>         0.0854
     24 H10        -2.2901    0.7282   -2.0083 H         1 <0>         0.0924
     25 H11        -3.1347   -0.8314   -1.8584 H         1 <0>         0.0958
     26 H12        -4.5922    0.8248   -3.4061 H         1 <0>         0.4015
     27 H13        -5.8319    1.5777   -2.5583 H         1 <0>         0.4018
@<TRIPOS>BOND
     1    1    2 1
     2    1   16 1
     3    1   17 1
     4    1   18 1
     5    2    9 1
     6    2    3 2
     7    3    4 1
     8    3   11 1
     9    4    5 2
    10    4    6 am
    11    6    7 1
    12    6    8 1
    13    8    9 2
    14    8   10 1
    15   10   19 1
    16   10   20 1
    17   10   21 1
    18   11   12 1
    19   11   22 1
    20   11   23 1
    21   12   13 1
    22   12   24 1
    23   12   25 1
    24   13   14 2
    25   13   15 am
    26   15   26 1
    27   15   27 1
@<TRIPOS>MOLECULE
ZINC42393223
   33    34     0     0     0
SMALL
USER_CHARGES

@<TRIPOS>ATOM
      1 C1         -0.0178    1.4608    0.0101 C.3       1 <0>         0.0875
      2 N1          0.0021   -0.0041    0.0020 N.am      1 <0>        -0.7375
      3 C2         -1.1558   -0.6938    0.0094 C.2       1 <0>         0.4923
      4 O1         -2.2142   -0.1017    0.0227 O.2       1 <0>        -0.5114
      5 C3         -1.1354   -2.2006    0.0011 C.3       1 <0>         0.1274
      6 H1         -0.5987   -2.5687    0.8754 H         1 <0>         0.0958
      7 C4         -0.4529   -2.7092   -1.2862 C.3       1 <0>        -0.1233
      8 C5         -1.3028   -3.9515   -1.6626 C.3       1 <0>        -0.1317
      9 C6         -2.7209   -3.5000   -1.2329 C.3       1 <0>         0.1127
     10 N2         -2.5111   -2.7193    0.0038 N.pl3     1 <0>        -0.6155
     11 C7         -3.4586   -2.5083    1.0080 C.ar      1 <0>         0.2884
     12 C8         -3.1323   -1.7456    2.1232 C.ar      1 <0>        -0.2263
     13 C9         -4.0687   -1.5368    3.1171 C.ar      1 <0>        -0.0311
     14 C10        -5.3324   -2.0846    3.0061 C.ar      1 <0>        -0.2512
     15 C11        -5.6651   -2.8481    1.8939 C.ar      1 <0>         0.2542
     16 C12        -4.7284   -3.0551    0.8907 C.ar      1 <0>        -0.2700
     17 N3         -6.9423   -3.4023    1.7829 N.pl3     1 <0>        -0.8790
     18 H2          1.0048    1.8381    0.0023 H         1 <0>         0.0757
     19 H3         -0.5450    1.8219   -0.8730 H         1 <0>         0.0587
     20 H4         -0.5280    1.8123    0.9069 H         1 <0>         0.0597
     21 H5          0.8486   -0.4776   -0.0086 H         1 <0>         0.4008
     22 H6         -0.5022   -1.9557   -2.0723 H         1 <0>         0.0806
     23 H7          0.5803   -2.9943   -1.0881 H         1 <0>         0.0918
     24 H8         -1.2618   -4.1427   -2.7349 H         1 <0>         0.0880
     25 H9         -0.9843   -4.8282   -1.0986 H         1 <0>         0.0811
     26 H10        -3.1706   -2.8759   -2.0051 H         1 <0>         0.0619
     27 H11        -3.3500   -4.3668   -1.0305 H         1 <0>         0.0762
     28 H12        -2.1455   -1.3160    2.2130 H         1 <0>         0.1049
     29 H13        -3.8124   -0.9444    3.9830 H         1 <0>         0.1173
     30 H14        -6.0621   -1.9195    3.7849 H         1 <0>         0.1140
     31 H15        -4.9860   -3.6441    0.0229 H         1 <0>         0.1149
     32 H16        -7.5977   -3.2542    2.4826 H         1 <0>         0.3977
     33 H17        -7.1740   -3.9351    1.0062 H         1 <0>         0.3957
@<TRIPOS>BOND
     1    1    2 1
     2    1   18 1
     3    1   19 1
     4    1   20 1
     5    2    3 am
     6    2   21 1
     7    3    4 2
     8    3    5 1
     9    5    6 1
    10    5   10 1
    11    5    7 1
    12    7    8 1
    13    7   22 1
    14    7   23 1
    15    8    9 1
    16    8   24 1
    17    8   25 1
    18    9   10 1
    19    9   26 1
    20    9   27 1
    21   10   11 1
    22   11   16 ar
    23   11   12 ar
    24   12   13 ar
    25   12   28 1
    26   13   14 ar
    27   13   29 1
    28   14   15 ar
    29   14   30 1
    30   15   16 ar
    31   15   17 1
    32   16   31 1
    33   17   32 1
    34   17   33 1
@<TRIPOS>MOLECULE
ZINC62238350
   25    26     0     0     0
SMALL
USER_CHARGES

@<TRIPOS>ATOM
      1 C1         -0.0187    1.5267    0.0104 C.3       1 <0>        -0.1556
      2 C2          1.4212    2.0492   -0.0005 C.3       1 <0>        -0.1130
      3 C3          2.1483    1.4844   -1.2247 C.3       1 <0>        -0.0474
      4 H1          1.6665    1.8455   -2.1333 H         1 <0>         0.1235
      5 C4          2.0854   -0.0448   -1.1854 C.3       1 <0>         0.0714
      6 O1          0.7195   -0.4631   -1.1454 O.3       1 <0>        -0.3677
      7 C5          0.0021   -0.0041    0.0020 C.3       1 <0>         0.0527
      8 C6          3.5875    1.9311   -1.2061 C.2       1 <0>         0.2968
      9 N1          4.2605    2.2594   -0.1506 N.2       1 <0>        -0.2603
     10 N2          5.5559    2.6139   -0.5519 N.pl3     1 <0>        -0.4634
     11 C7          5.6116    2.4780   -1.8933 C.2       1 <0>         0.4444
     12 N3          4.4012    2.0507   -2.3057 N.pl3     1 <0>        -0.3316
     13 N4          4.0443    1.7853   -3.5973 N.3       1 <0>        -0.5681
     14 S1          6.9711    2.7845   -2.8876 S.2       1 <0>        -0.5640
     15 H2         -0.5273    1.8791    0.9078 H         1 <0>         0.0857
     16 H3         -0.5443    1.8887   -0.8732 H         1 <0>         0.0784
     17 H4          1.4136    3.1380   -0.0511 H         1 <0>         0.0793
     18 H5          1.9323    1.7285    0.9073 H         1 <0>         0.0816
     19 H6          2.5642   -0.4513   -2.0763 H         1 <0>         0.0956
     20 H7          2.6027   -0.4072   -0.2971 H         1 <0>         0.0630
     21 H8          0.4921   -0.3659    0.9059 H         1 <0>         0.0568
     22 H9         -1.0200   -0.3813   -0.0334 H         1 <0>         0.1027
     23 H10         4.8161    1.9484   -4.2265 H         1 <0>         0.3980
     24 H11         3.6954    0.8430   -3.6896 H         1 <0>         0.3677
     25 H12         6.2782    2.9034    0.0272 H         1 <0>         0.4734
@<TRIPOS>BOND
     1    1    7 1
     2    1    2 1
     3    1   15 1
     4    1   16 1
     5    2    3 1
     6    2   17 1
     7    2   18 1
     8    3    4 1
     9    3    5 1
    10    3    8 1
    11    5    6 1
    12    5   19 1
    13    5   20 1
    14    6    7 1
    15    7   21 1
    16    7   22 1
    17    8   12 1
    18    8    9 2
    19    9   10 1
    20   10   11 1
    21   10   25 1
    22   11   12 1
    23   11   14 2
    24   12   13 1
    25   13   23 1
    26   13   24 1
@<TRIPOS>MOLECULE
ZINC12505444
   24    25     0     0     0
SMALL
USER_CHARGES
2-amino-5-fluoro-6-nitro-1H-indole-3-carboxamide
@<TRIPOS>ATOM
      1 C1         -1.1876   -2.0888    0.0017 C.ar      1 <0>        -0.1311
      2 C2          0.0259   -2.7720   -0.0135 C.ar      1 <0>         0.0419
      3 C3          1.2352   -2.0607   -0.0208 C.ar      1 <0>         0.0716
      4 C4          1.2087   -0.6709   -0.0188 C.ar      1 <0>        -0.0100
      5 C5          0.0021   -0.0041    0.0020 C.ar      1 <0>        -0.0855
      6 C6         -1.1945   -0.7085    0.0097 C.ar      1 <0>         0.1625
      7 F1         -2.3689   -0.0409    0.0245 F         1 <0>        -0.1021
      8 N1         -0.0180    1.4761    0.0102 N.pl3     1 <0>         0.0357
      9 O1          1.0284    2.0994    0.0035 O.2       1 <0>        -0.1631
     10 O2         -1.0810    2.0707    0.0184 O.3       1 <0>        -0.1449
     11 N2          2.2700   -2.9817   -0.0353 N.pl3     1 <0>        -0.5909
     12 H1          3.2129   -2.7542   -0.0430 H         1 <0>         0.4277
     13 C7          1.7781   -4.2492   -0.0376 C.2       1 <0>         0.4639
     14 C8          0.3905   -4.2019   -0.0246 C.2       1 <0>        -0.3331
     15 C9         -0.4986   -5.3066   -0.0224 C.2       1 <0>         0.6061
     16 O3         -0.8900   -5.7753   -1.0761 O.2       1 <0>        -0.5343
     17 N3         -0.9103   -5.8379    1.1457 N.am      1 <0>        -0.8485
     18 N4          2.5354   -5.3970   -0.0512 N.pl3     1 <0>        -0.8333
     19 H2         -2.1186   -2.6362    0.0077 H         1 <0>         0.1591
     20 H3          2.1336   -0.1133   -0.0294 H         1 <0>         0.1637
     21 H4         -0.5985   -5.4646    1.9850 H         1 <0>         0.4028
     22 H5         -1.5185   -6.5936    1.1472 H         1 <0>         0.4030
     23 H6          3.5037   -5.3391   -0.0598 H         1 <0>         0.4112
     24 H7          2.1014   -6.2645   -0.0523 H         1 <0>         0.4275
@<TRIPOS>BOND
     1    1    6 ar
     2    1    2 ar
     3    1   19 1
     4    2   14 1
     5    2    3 ar
     6    3    4 ar
     7    3   11 1
     8    4    5 ar
     9    4   20 1
    10    5    6 ar
    11    5    8 1
    12    6    7 1
    13    8    9 2
    14    8   10 1
    15   11   12 1
    16   11   13 1
    17   13   14 2
    18   13   18 1
    19   14   15 1
    20   15   16 2
    21   15   17 am
    22   17   21 1
    23   17   22 1
    24   18   23 1
    25   18   24 1
@<TRIPOS>MOLECULE
ZINC36939884
   32    33     0     0     0
SMALL
USER_CHARGES

@<TRIPOS>ATOM
      1 C1         -0.0184    1.5028    0.0103 C.3       1 <0>        -0.0782
      2 C2          0.0021   -0.0041    0.0020 C.2       1 <0>         0.1444
      3 C3          0.0081   -0.8275   -1.1485 C.2       1 <0>        -0.3586
      4 C4          0.0285   -2.1474   -0.7036 C.2       1 <0>         0.4159
      5 N1          0.0344   -2.1116    0.6444 N.pl3     1 <0>        -0.4958
      6 H1          0.0484   -2.8834    1.2317 H         1 <0>         0.4390
      7 N2          0.0230   -0.7737    1.0530 N.2       1 <0>        -0.3017
      8 N3          0.0405   -3.2788   -1.4938 N.pl3     1 <0>        -0.8412
      9 C5         -0.0052   -0.3767   -2.5453 C.2       1 <0>         0.6302
     10 O1          1.0430   -0.1749   -3.1295 O.2       1 <0>        -0.5228
     11 N4         -1.1784   -0.1863   -3.1808 N.am      1 <0>        -0.5986
     12 C6         -2.5159   -0.3859   -2.5937 C.3       1 <0>         0.1051
     13 C7         -3.4559    0.5148   -3.4332 C.3       1 <0>        -0.1322
     14 C8         -2.8505    0.3588   -4.8533 C.3       1 <0>        -0.1241
     15 C9         -1.3363    0.2610   -4.5724 C.3       1 <0>         0.1165
     16 H2         -0.8693    1.2372   -4.7033 H         1 <0>         0.1038
     17 C10        -0.7080   -0.7404   -5.5070 C.2       1 <0>         0.5120
     18 O2         -0.1769   -1.7355   -5.0615 O.2       1 <0>        -0.5266
     19 N5         -0.7364   -0.5300   -6.8380 N.am      1 <0>        -0.8548
     20 H3          1.0042    1.8801    0.0026 H         1 <0>         0.0833
     21 H4         -0.5455    1.8639   -0.8728 H         1 <0>         0.0747
     22 H5         -0.5286    1.8543    0.9071 H         1 <0>         0.0795
     23 H6          0.0348   -3.1956   -2.4602 H         1 <0>         0.4253
     24 H7          0.0547   -4.1573   -1.0827 H         1 <0>         0.4041
     25 H8         -2.8155   -1.4305   -2.6789 H         1 <0>         0.0658
     26 H9         -2.5226   -0.0724   -1.5498 H         1 <0>         0.0831
     27 H10        -4.4809    0.1454   -3.4027 H         1 <0>         0.0893
     28 H11        -3.4056    1.5510   -3.0987 H         1 <0>         0.0832
     29 H12        -3.2173   -0.5496   -5.3311 H         1 <0>         0.0819
     30 H13        -3.0713    1.2336   -5.4648 H         1 <0>         0.0935
     31 H14        -1.1612    0.2659   -7.1943 H         1 <0>         0.4010
     32 H15        -0.3320   -1.1746   -7.4396 H         1 <0>         0.4029
@<TRIPOS>BOND
     1    1    2 1
     2    1   20 1
     3    1   21 1
     4    1   22 1
     5    2    7 2
     6    2    3 1
     7    3    4 2
     8    3    9 1
     9    4    5 1
    10    4    8 1
    11    5    6 1
    12    5    7 1
    13    8   23 1
    14    8   24 1
    15    9   10 2
    16    9   11 am
    17   11   15 1
    18   11   12 1
    19   12   13 1
    20   12   25 1
    21   12   26 1
    22   13   14 1
    23   13   27 1
    24   13   28 1
    25   14   15 1
    26   14   29 1
    27   14   30 1
    28   15   16 1
    29   15   17 1
    30   17   18 2
    31   17   19 am
    32   19   31 1
    33   19   32 1
@<TRIPOS>MOLECULE
ZINC40293084
   39    41     0     0     0
SMALL
USER_CHARGES

@<TRIPOS>ATOM
      1 C1          0.3858    4.1063    2.4217 C.ar      1 <0>        -0.1993
      2 C2          1.5333    3.6935    1.8040 C.ar      1 <0>        -0.0194
      3 C3          2.1207    4.4919    0.8258 C.ar      1 <0>        -0.1172
      4 C4          1.5378    5.7197    0.4720 C.ar      1 <0>         0.1394
      5 C5          0.3711    6.1285    1.1084 C.ar      1 <0>        -0.2222
      6 C6         -0.2006    5.3224    2.0783 C.ar      1 <0>         0.2404
      7 N1         -1.3741    5.7323    2.7180 N.pl3     1 <0>        -0.8761
      8 N2          2.3259    6.2848   -0.5092 N.pl3     1 <0>        -0.5810
      9 H1          2.1527    7.1391   -0.9346 H         1 <0>         0.4197
     10 C7          3.3774    5.4775   -0.7943 C.2       1 <0>         0.0807
     11 C8          3.3233    4.3582   -0.0181 C.2       1 <0>        -0.2083
     12 C9          4.2752    3.2393   -0.0211 C.2       1 <0>         0.5935
     13 O1          3.8707    2.0961    0.0780 O.2       1 <0>        -0.5316
     14 N3          5.5967    3.4792   -0.1337 N.am      1 <0>        -0.6102
     15 C10         6.5504    2.3694   -0.2654 C.3       1 <0>         0.1094
     16 C11         7.6278    2.5144    0.8139 C.3       1 <0>        -0.1349
     17 C12         8.2621    3.9035    0.7126 C.3       1 <0>        -0.1015
     18 C13         7.1932    4.9727    0.9503 C.3       1 <0>        -0.1248
     19 H2          6.7452    4.8269    1.9332 H         1 <0>         0.1050
     20 C14         6.1104    4.8558   -0.1331 C.3       1 <0>         0.1117
     21 C15         7.8251    6.3392    0.8832 C.2       1 <0>         0.5240
     22 O2          9.0134    6.4478    0.6665 O.2       1 <0>        -0.5347
     23 N4          7.0696    7.4406    1.0639 N.am      1 <0>        -0.8560
     24 H3         -0.0712    3.4840    3.1769 H         1 <0>         0.1249
     25 H4          1.9838    2.7499    2.0744 H         1 <0>         0.1281
     26 H5         -0.0878    7.0704    0.8466 H         1 <0>         0.1200
     27 H6         -1.7772    5.1706    3.3984 H         1 <0>         0.4006
     28 H7         -1.7852    6.5784    2.4816 H         1 <0>         0.3981
     29 H8          4.1427    5.6895   -1.5262 H         1 <0>         0.1761
     30 H9          6.0282    1.4215   -0.1354 H         1 <0>         0.0974
     31 H10         7.0142    2.4012   -1.2513 H         1 <0>         0.0703
     32 H11         7.1757    2.3918    1.7981 H         1 <0>         0.0694
     33 H12         8.3941    1.7530    0.6676 H         1 <0>         0.0826
     34 H13         9.0460    4.0004    1.4636 H         1 <0>         0.0757
     35 H14         8.6924    4.0346   -0.2803 H         1 <0>         0.0738
     36 H15         6.5390    5.0862   -1.1084 H         1 <0>         0.0758
     37 H16         5.2977    5.5489    0.0843 H         1 <0>         0.0963
     38 H17         6.1192    7.3537    1.2372 H         1 <0>         0.4011
     39 H18         7.4763    8.3201    1.0207 H         1 <0>         0.4032
@<TRIPOS>BOND
     1    1    6 ar
     2    1    2 ar
     3    1   24 1
     4    2    3 ar
     5    2   25 1
     6    3   11 1
     7    3    4 ar
     8    4    5 ar
     9    4    8 1
    10    5    6 ar
    11    5   26 1
    12    6    7 1
    13    7   27 1
    14    7   28 1
    15    8    9 1
    16    8   10 1
    17   10   11 2
    18   10   29 1
    19   11   12 1
    20   12   13 2
    21   12   14 am
    22   14   20 1
    23   14   15 1
    24   15   16 1
    25   15   30 1
    26   15   31 1
    27   16   17 1
    28   16   32 1
    29   16   33 1
    30   17   18 1
    31   17   34 1
    32   17   35 1
    33   18   19 1
    34   18   20 1
    35   18   21 1
    36   20   36 1
    37   20   37 1
    38   21   22 2
    39   21   23 am
    40   23   38 1
    41   23   39 1
@<TRIPOS>MOLECULE
ZINC48844122
   48    49     0     0     0
SMALL
USER_CHARGES

@<TRIPOS>ATOM
      1 C1          3.8042    0.9086   -3.6765 C.3       1 <0>        -0.1184
      2 C2          4.3207   -0.2562   -2.8761 C.3       1 <0>        -0.1136
      3 C3          3.4234   -1.5023   -3.0020 C.3       1 <0>        -0.1059
      4 C4          1.9212   -1.1642   -2.9520 C.3       1 <0>        -0.1008
      5 C5          1.5981   -0.1306   -1.9073 C.3       1 <0>         0.1343
      6 C6          1.5958    1.2588   -2.5771 C.3       1 <0>        -0.1090
      7 C7          2.9386    1.7914   -2.7544 C.3       1 <0>        -0.1105
      8 C8          0.2389   -0.4118   -1.3202 C.2       1 <0>         0.5041
      9 O1          0.1241   -0.6321   -0.1266 O.co2     1 <0>        -0.6872
     10 O2         -0.7460   -0.4190   -2.0389 O.co2     1 <0>        -0.6896
     11 N1          2.6118   -0.1656   -0.8502 N.am      1 <0>        -0.7029
     12 C9          2.8161   -1.2989   -0.1499 C.2       1 <0>         0.7114
     13 O3          2.1592   -2.2921   -0.3954 O.2       1 <0>        -0.5507
     14 N2          3.7487   -1.3311    0.8226 N.am      1 <0>        -0.7703
     15 C10         3.9709   -2.5629    1.5839 C.3       1 <0>         0.1516
     16 H1          3.0226   -3.0835    1.7174 H         1 <0>         0.1138
     17 C11         4.9448   -3.4644    0.8225 C.3       1 <0>        -0.1292
     18 C12         6.2759   -2.7336    0.6351 C.3       1 <0>        -0.1271
     19 C13         6.8650   -2.3878    2.0042 C.3       1 <0>        -0.1147
     20 C14         5.8910   -1.4863    2.7656 C.3       1 <0>        -0.1408
     21 C15         4.5600   -2.2171    2.9529 C.3       1 <0>         0.0202
     22 H2          4.7253   -3.1336    3.5193 H         1 <0>         0.1530
     23 N3          3.6248   -1.3516    3.6840 N.4       1 <0>        -0.6349
     24 H3          4.6427    1.4906   -4.0591 H         1 <0>         0.0573
     25 H4          3.1996    0.5431   -4.5066 H         1 <0>         0.0678
     26 H5          5.3229   -0.5066   -3.2242 H         1 <0>         0.0447
     27 H6          4.3762    0.0339   -1.8268 H         1 <0>         0.0590
     28 H7          3.6409   -1.9978   -3.9482 H         1 <0>         0.0480
     29 H8          3.6569   -2.1874   -2.1871 H         1 <0>         0.0549
     30 H9          1.6115   -0.7887   -3.9273 H         1 <0>         0.0590
     31 H10         1.3621   -2.0739   -2.7328 H         1 <0>         0.0664
     32 H11         1.1158    1.1796   -3.5525 H         1 <0>         0.0772
     33 H12         1.0215    1.9481   -1.9581 H         1 <0>         0.0593
     34 H13         3.4213    1.8634   -1.7798 H         1 <0>         0.0480
     35 H14         2.8681    2.7899   -3.1860 H         1 <0>         0.0594
     36 H15         3.1358    0.6268   -0.6544 H         1 <0>         0.3800
     37 H16         4.2728   -0.5387    1.0185 H         1 <0>         0.3835
     38 H17         5.1101   -4.3808    1.3889 H         1 <0>         0.0774
     39 H18         4.5251   -3.7107   -0.1528 H         1 <0>         0.0916
     40 H19         6.9697   -3.3758    0.0927 H         1 <0>         0.0754
     41 H20         6.1106   -1.8171    0.0687 H         1 <0>         0.0714
     42 H21         7.0303   -3.3043    2.5706 H         1 <0>         0.0745
     43 H22         7.8133   -1.8671    1.8707 H         1 <0>         0.0822
     44 H23         6.3107   -1.2400    3.7409 H         1 <0>         0.0892
     45 H24         5.7257   -0.5698    2.1991 H         1 <0>         0.0846
     46 H25         2.7470   -1.8336    3.8075 H         1 <0>         0.4411
     47 H26         4.0133   -1.1236    4.5868 H         1 <0>         0.4319
     48 H27         3.4718   -0.5032    3.1596 H         1 <0>         0.4335
@<TRIPOS>BOND
     1    1    7 1
     2    1    2 1
     3    1   24 1
     4    1   25 1
     5    2    3 1
     6    2   26 1
     7    2   27 1
     8    3    4 1
     9    3   28 1
    10    3   29 1
    11    4    5 1
    12    4   30 1
    13    4   31 1
    14    5    6 1
    15    5    8 1
    16    5   11 1
    17    6    7 1
    18    6   32 1
    19    6   33 1
    20    7   34 1
    21    7   35 1
    22    8    9 2
    23    8   10 1
    24   11   12 am
    25   11   36 1
    26   12   13 2
    27   12   14 am
    28   14   15 1
    29   14   37 1
    30   15   16 1
    31   15   21 1
    32   15   17 1
    33   17   18 1
    34   17   38 1
    35   17   39 1
    36   18   19 1
    37   18   40 1
    38   18   41 1
    39   19   20 1
    40   19   42 1
    41   19   43 1
    42   20   21 1
    43   20   44 1
    44   20   45 1
    45   21   22 1
    46   21   23 1
    47   23   46 1
    48   23   47 1
    49   23   48 1
@<TRIPOS>MOLECULE
ZINC62101963
   34    35     0     0     0
SMALL
USER_CHARGES

@<TRIPOS>ATOM
      1 C1         -0.0733    1.2654    0.0127 C.ar      1 <0>        -0.0073
      2 C2          1.0606    2.0838   -0.0175 C.ar      1 <0>        -0.2422
      3 C3          2.3374    1.5020   -0.0359 C.ar      1 <0>         0.3101
      4 C4          2.4663    0.1196   -0.0239 C.ar      1 <0>        -0.2468
      5 C5          1.3412   -0.6814    0.0059 C.ar      1 <0>         0.1768
      6 C6          0.0699   -0.1088    0.0242 C.ar      1 <0>         0.0525
      7 N1         -1.0659   -0.9297    0.0549 N.pl3     1 <0>        -0.6631
      8 C7         -1.6137   -1.3229    1.3517 C.3       1 <0>         0.1530
      9 C8         -1.5073   -2.8437    1.5129 C.3       1 <0>        -0.1630
     10 C9         -2.6452   -3.4903    0.7560 C.2       1 <0>         0.5192
     11 O1         -3.5578   -4.0063    1.3658 O.2       1 <0>        -0.5515
     12 N2         -2.6527   -3.4967   -0.5803 N.am      1 <0>        -0.7255
     13 C10        -1.5536   -2.8829   -1.3379 C.3       1 <0>         0.0840
     14 C11        -1.6598   -1.3542   -1.2102 C.3       1 <0>         0.1240
     15 F1          1.4732   -2.0259    0.0174 F         1 <0>        -0.1275
     16 N3          3.4711    2.3081   -0.0664 N.pl3     1 <0>        -0.8471
     17 C12         0.9152    3.5496   -0.0305 C.2       1 <0>         0.5803
     18 O2          1.8994    4.2592    0.0523 O.2       1 <0>        -0.5543
     19 N4         -0.3087    4.1045   -0.1342 N.am      1 <0>        -0.8482
     20 H1         -1.0588    1.7068    0.0314 H         1 <0>         0.1352
     21 H2          3.4480   -0.3303   -0.0383 H         1 <0>         0.1419
     22 H3         -1.0518   -0.8331    2.1469 H         1 <0>         0.0852
     23 H4         -2.6604   -1.0239    1.4095 H         1 <0>         0.0621
     24 H5         -0.5559   -3.1889    1.1082 H         1 <0>         0.0962
     25 H6         -1.5750   -3.1053    2.5689 H         1 <0>         0.1029
     26 H7         -3.3905   -3.9108   -1.0546 H         1 <0>         0.4001
     27 H8         -0.5989   -3.2199   -0.9342 H         1 <0>         0.0833
     28 H9         -1.6296   -3.1678   -2.3873 H         1 <0>         0.0920
     29 H10        -2.7083   -1.0574   -1.2363 H         1 <0>         0.0647
     30 H11        -1.1292   -0.8814   -2.0366 H         1 <0>         0.0855
     31 H12         3.3833    3.2715    0.0058 H         1 <0>         0.4209
     32 H13         4.3492    1.9068   -0.1598 H         1 <0>         0.3976
     33 H14        -1.0938    3.5385   -0.2003 H         1 <0>         0.4023
     34 H15        -0.4045    5.0697   -0.1428 H         1 <0>         0.4070
@<TRIPOS>BOND
     1    1    6 ar
     2    1    2 ar
     3    1   20 1
     4    2    3 ar
     5    2   17 1
     6    3    4 ar
     7    3   16 1
     8    4    5 ar
     9    4   21 1
    10    5    6 ar
    11    5   15 1
    12    6    7 1
    13    7   14 1
    14    7    8 1
    15    8    9 1
    16    8   22 1
    17    8   23 1
    18    9   10 1
    19    9   24 1
    20    9   25 1
    21   10   11 2
    22   10   12 am
    23   12   13 1
    24   12   26 1
    25   13   14 1
    26   13   27 1
    27   13   28 1
    28   14   29 1
    29   14   30 1
    30   16   31 1
    31   16   32 1
    32   17   18 2
    33   17   19 am
    34   19   33 1
    35   19   34 1
@<TRIPOS>MOLECULE
ZINC28976085
   30    32     0     0     0
SMALL
USER_CHARGES
5-[(4,6-dioxo-2-thioxo-hexahydropyrimidin-5-ylidene)methylamino]isoindoline-1,3-dione
@<TRIPOS>ATOM
      1 C1          3.4105    2.9366    0.0092 C.ar      1 <0>        -0.1429
      2 C2          2.5329    1.8677    0.0248 C.ar      1 <0>        -0.0032
      3 C3          1.1647    2.0977    0.0092 C.ar      1 <0>        -0.1600
      4 C4          0.6731    3.4203   -0.0240 C.ar      1 <0>        -0.1055
      5 C5          1.5566    4.4838   -0.0402 C.ar      1 <0>        -0.0697
      6 C6          2.9303    4.2402   -0.0235 C.ar      1 <0>         0.1639
      7 N1          3.8243    5.3084   -0.0401 N.pl3     1 <0>        -0.6123
      8 C7          5.1498    5.0816    0.0843 C.2       1 <0>         0.3296
      9 C8          6.0262    6.1451    0.1860 C.2       1 <0>        -0.4124
     10 C9          5.5420    7.5326    0.3039 C.2       1 <0>         0.5792
     11 O1          4.3507    7.7799    0.3149 O.2       1 <0>        -0.5108
     12 N2          6.4555    8.5200    0.4051 N.am      1 <0>        -0.6305
     13 C10         7.7707    8.2622    0.3885 C.2       1 <0>         0.5588
     14 S1          8.8565    9.5799    0.5139 S.2       1 <0>        -0.5295
     15 N3          8.2812    7.0277    0.2784 N.am      1 <0>        -0.6312
     16 C11         7.4865    5.9426    0.1751 C.2       1 <0>         0.5778
     17 O2          7.9619    4.8271    0.0754 O.2       1 <0>        -0.4912
     18 C12        -0.8008    3.3030   -0.0327 C.2       1 <0>         0.5741
     19 O3         -1.5860    4.2291   -0.0594 O.2       1 <0>        -0.4570
     20 N4         -1.1257    1.9977   -0.0121 N.am      1 <0>        -0.6921
     21 C13        -0.0253    1.2250    0.0194 C.2       1 <0>         0.5859
     22 O4         -0.0129    0.0106    0.0466 O.2       1 <0>        -0.4593
     23 H1          4.4754    2.7570    0.0219 H         1 <0>         0.1511
     24 H2          2.9116    0.8566    0.0506 H         1 <0>         0.1550
     25 H3          1.1853    5.4976   -0.0659 H         1 <0>         0.1529
     26 H4          3.4506    6.3366   -0.1545 H         1 <0>         0.4639
     27 H5          5.5318    4.0503    0.1047 H         1 <0>         0.1893
     28 H6          6.1270    9.5651    0.5040 H         1 <0>         0.4804
     29 H7          9.3715    6.8821    0.2708 H         1 <0>         0.4811
     30 H8         -2.1829    1.6938   -0.0220 H         1 <0>         0.4645
@<TRIPOS>BOND
     1    1    6 ar
     2    1    2 ar
     3    1   23 1
     4    2    3 ar
     5    2   24 1
     6    3   21 1
     7    3    4 ar
     8    4    5 ar
     9    4   18 1
    10    5    6 ar
    11    5   25 1
    12    6    7 1
    13    7    8 1
    14    7   26 1
    15    8    9 2
    16    8   27 1
    17    9   16 1
    18    9   10 1
    19   10   11 2
    20   10   12 am
    21   12   13 1
    22   12   28 1
    23   13   14 2
    24   13   15 1
    25   15   16 am
    26   15   29 1
    27   16   17 2
    28   18   19 2
    29   18   20 am
    30   20   21 am
    31   20   30 1
    32   21   22 2
@<TRIPOS>MOLECULE
ZINC40470883
   41    42     0     0     0
SMALL
USER_CHARGES

@<TRIPOS>ATOM
      1 C1         -0.0187    1.5258    0.0104 C.3       1 <0>        -0.1821
      2 C2          0.0021   -0.0041    0.0020 C.3       1 <0>         0.1069
      3 H1         -1.0205   -0.3814    0.0098 H         1 <0>         0.1155
      4 C3          0.7421   -0.5109    1.2415 C.3       1 <0>         0.0359
      5 H2          0.1838   -0.2350    2.1361 H         1 <0>         0.0973
      6 C4          0.8700   -2.0108    1.1719 C.2       1 <0>         0.5000
      7 O1          1.8419   -2.5156    0.6361 O.co2     1 <0>        -0.6803
      8 O2          0.0015   -2.7197    1.6514 O.co2     1 <0>        -0.6796
      9 N1          2.0766    0.0911    1.2937 N.am      1 <0>        -0.6605
     10 C5          2.7121    0.2198    2.4753 C.2       1 <0>         0.4981
     11 O3          2.1791   -0.1628    3.4953 O.2       1 <0>        -0.5326
     12 C6          4.0849    0.8391    2.5290 C.3       1 <0>         0.0083
     13 H3          4.0502    1.8536    2.1320 H         1 <0>         0.1623
     14 C7          5.0768   -0.0111    1.7112 C.3       1 <0>        -0.1425
     15 C8          6.1462   -0.4765    2.7396 C.3       1 <0>        -0.0932
     16 H4          7.1459   -0.5200    2.3074 H         1 <0>         0.1326
     17 C9          5.6860   -1.8387    3.2636 C.3       1 <0>        -0.1358
     18 C10         6.4326   -2.2080    4.5428 C.3       1 <0>        -0.1260
     19 C11         6.1055   -1.1655    5.6176 C.3       1 <0>        -0.1348
     20 C12         6.6356    0.1895    5.1494 C.3       1 <0>        -0.1353
     21 C13         6.0282    0.6077    3.8263 C.3       1 <0>         0.0388
     22 H5          6.5077    1.5201    3.4717 H         1 <0>         0.1380
     23 N2          4.5749    0.8608    3.9283 N.4       1 <0>        -0.5010
     24 O4          0.6709   -0.4649   -1.1737 O.3       1 <0>        -0.5402
     25 H6          1.0039    1.9031    0.0027 H         1 <0>         0.0498
     26 H7         -0.5459    1.8868   -0.8726 H         1 <0>         0.0678
     27 H8         -0.5289    1.8773    0.9072 H         1 <0>         0.0657
     28 H9          2.5029    0.3971    0.4779 H         1 <0>         0.3969
     29 H10         4.5693   -0.8720    1.2760 H         1 <0>         0.1233
     30 H11         5.5392    0.5923    0.9301 H         1 <0>         0.1137
     31 H12         4.6166   -1.8006    3.4708 H         1 <0>         0.0698
     32 H13         5.8768   -2.5978    2.5051 H         1 <0>         0.0919
     33 H14         6.1142   -3.1943    4.8805 H         1 <0>         0.0799
     34 H15         7.5058   -2.2125    4.3519 H         1 <0>         0.0750
     35 H16         5.0260   -1.1090    5.7582 H         1 <0>         0.0639
     36 H17         6.5847   -1.4430    6.5565 H         1 <0>         0.0887
     37 H18         6.4032    0.9427    5.9023 H         1 <0>         0.0862
     38 H19         7.7174    0.1275    5.0309 H         1 <0>         0.1107
     39 H20         4.4018    1.7627    4.3462 H         1 <0>         0.4308
     40 H21         1.5879   -0.1667   -1.2470 H         1 <0>         0.3623
     41 H22         4.1302    0.1324    4.4666 H         1 <0>         0.4339
@<TRIPOS>BOND
     1    1    2 1
     2    1   25 1
     3    1   26 1
     4    1   27 1
     5    2    3 1
     6    2    4 1
     7    2   24 1
     8    4    5 1
     9    4    6 1
    10    4    9 1
    11    6    7 2
    12    6    8 1
    13    9   10 am
    14    9   28 1
    15   10   11 2
    16   10   12 1
    17   12   13 1
    18   12   23 1
    19   12   14 1
    20   14   15 1
    21   14   29 1
    22   14   30 1
    23   15   16 1
    24   15   21 1
    25   15   17 1
    26   17   18 1
    27   17   31 1
    28   17   32 1
    29   18   19 1
    30   18   33 1
    31   18   34 1
    32   19   20 1
    33   19   35 1
    34   19   36 1
    35   20   21 1
    36   20   37 1
    37   20   38 1
    38   21   22 1
    39   21   23 1
    40   23   39 1
    41   23   41 1
    42   24   40 1
@<TRIPOS>MOLECULE
ZINC44932439
   37    39     0     0     0
SMALL
USER_CHARGES

@<TRIPOS>ATOM
      1 C1          0.0109    1.2301    0.2336 C.3       1 <0>        -0.1970
      2 C2         -0.2348   -0.2601   -0.0114 C.3       1 <0>         0.1896
      3 C3         -1.7351   -0.4855   -0.1937 C.3       1 <0>        -0.1740
      4 C4         -2.1223   -1.9228    0.2534 C.3       1 <0>        -0.5668
      5 S1         -1.0466   -2.0810    1.7461 S.o2      1 <0>         2.3688
      6 O1         -1.6711   -1.4289    2.8434 O.2       1 <0>        -0.9193
      7 O2         -0.6261   -3.4319    1.8781 O.2       1 <0>        -0.9221
      8 C5          0.3685   -1.0592    1.1602 C.3       1 <0>        -0.5903
      9 N1          0.4488   -0.6501   -1.2470 N.pl3     1 <0>        -0.3876
     10 C6          0.1821   -0.2206   -2.5121 C.2       1 <0>         0.3324
     11 N2          1.0371   -0.8269   -3.3109 N.2       1 <0>        -0.3584
     12 N3          1.8120   -1.5983   -2.6379 N.2       1 <0>        -0.0245
     13 N4          1.5257   -1.5438   -1.3826 N.2       1 <0>        -0.0897
     14 C7         -0.8656    0.7407   -2.9121 C.ar      1 <0>        -0.2032
     15 C8         -1.5902    1.4316   -1.9394 C.ar      1 <0>        -0.0444
     16 C9         -2.5662    2.3278   -2.3146 C.ar      1 <0>        -0.2495
     17 C10        -2.8344    2.5485   -3.6629 C.ar      1 <0>         0.2947
     18 C11        -2.1195    1.8666   -4.6381 C.ar      1 <0>        -0.2905
     19 C12        -1.1317    0.9666   -4.2707 C.ar      1 <0>         0.3275
     20 N5         -0.4089    0.2852   -5.2471 N.pl3     1 <0>        -0.8543
     21 N6         -3.8244    3.4570   -4.0347 N.pl3     1 <0>        -0.8635
     22 H1          0.9904    1.3663    0.6920 H         1 <0>         0.0877
     23 H2         -0.0237    1.7649   -0.7155 H         1 <0>         0.1004
     24 H3         -0.7591    1.6206    0.8990 H         1 <0>         0.1033
     25 H4         -2.2843    0.2394    0.4071 H         1 <0>         0.1255
     26 H5         -1.9947   -0.3523   -1.2439 H         1 <0>         0.1340
     27 H6         -3.1783   -1.9862    0.5161 H         1 <0>         0.1544
     28 H7         -1.8594   -2.6595   -0.5057 H         1 <0>         0.1394
     29 H8          1.1838   -1.6941    0.8133 H         1 <0>         0.1688
     30 H9          0.7106   -0.3880    1.9479 H         1 <0>         0.1617
     31 H10        -1.3856    1.2631   -0.8925 H         1 <0>         0.1624
     32 H11        -3.1259    2.8610   -1.5603 H         1 <0>         0.1301
     33 H12        -2.3306    2.0401   -5.6830 H         1 <0>         0.1296
     34 H13         0.3566   -0.2549   -4.9954 H         1 <0>         0.4195
     35 H14        -0.6710    0.3507   -6.1787 H         1 <0>         0.3993
     36 H15        -4.3250    3.9341   -3.3546 H         1 <0>         0.4034
     37 H16        -4.0125    3.6120   -4.9736 H         1 <0>         0.4026
@<TRIPOS>BOND
     1    1    2 1
     2    1   22 1
     3    1   23 1
     4    1   24 1
     5    2    8 1
     6    2    3 1
     7    2    9 1
     8    3    4 1
     9    3   25 1
    10    3   26 1
    11    4    5 1
    12    4   27 1
    13    4   28 1
    14    5    6 2
    15    5    7 2
    16    5    8 1
    17    8   29 1
    18    8   30 1
    19    9   13 1
    20    9   10 1
    21   10   11 2
    22   10   14 1
    23   11   12 1
    24   12   13 2
    25   14   19 ar
    26   14   15 ar
    27   15   16 ar
    28   15   31 1
    29   16   17 ar
    30   16   32 1
    31   17   18 ar
    32   17   21 1
    33   18   19 ar
    34   18   33 1
    35   19   20 1
    36   20   34 1
    37   20   35 1
    38   21   36 1
    39   21   37 1
@<TRIPOS>MOLECULE
ZINC54492868
   36    37     0     0     0
SMALL
USER_CHARGES

@<TRIPOS>ATOM
      1 C1          0.0569    1.5182   -0.0477 C.3       1 <0>        -0.1101
      2 C2          1.4899    2.0504    0.0414 C.3       1 <0>        -0.1159
      3 C3          2.1537    1.4974    1.3056 C.3       1 <0>        -0.1027
      4 H1          1.6134    1.8499    2.1842 H         1 <0>         0.1077
      5 C4          2.1213   -0.0321    1.2655 C.3       1 <0>         0.0671
      6 N1          0.7291   -0.4915    1.1811 N.3       1 <0>        -0.5082
      7 C5          0.0853   -0.0119   -0.0485 C.3       1 <0>         0.0296
      8 C6          0.6507   -1.9551    1.2800 C.3       1 <0>         0.0850
      9 H2          1.2558   -2.2781    2.1272 H         1 <0>         0.1065
     10 C7          1.2404   -2.5688   -0.0096 C.3       1 <0>        -0.6129
     11 S1          0.1319   -4.0242   -0.2553 S.o2      1 <0>         2.3685
     12 O1          0.5723   -5.0955    0.5680 O.2       1 <0>        -0.9278
     13 O2         -0.0627   -4.2380   -1.6466 O.2       1 <0>        -0.9340
     14 C8         -1.3951   -3.2833    0.4704 C.3       1 <0>        -0.5707
     15 C9         -0.7961   -2.3474    1.5392 C.3       1 <0>         0.0965
     16 H3         -0.8531   -2.8469    2.5063 H         1 <0>         0.0661
     17 N2         -1.6094   -1.1256    1.6000 N.3       1 <0>        -0.8223
     18 C10         3.5833    1.9696    1.3709 C.2       1 <0>         0.5214
     19 O3          4.4884    1.1625    1.3874 O.2       1 <0>        -0.5430
     20 N3          3.8560    3.2889    1.4110 N.am      1 <0>        -0.8547
     21 H4         -0.5163    1.8710    0.8097 H         1 <0>         0.0754
     22 H5         -0.4069    1.8740   -0.9676 H         1 <0>         0.0714
     23 H6          2.0526    1.7300   -0.8354 H         1 <0>         0.0648
     24 H7          1.4719    3.1393    0.0860 H         1 <0>         0.0689
     25 H8          2.6734   -0.3844    0.3942 H         1 <0>         0.0478
     26 H9          2.5804   -0.4289    2.1710 H         1 <0>         0.0823
     27 H10        -0.9343   -0.3941   -0.0975 H         1 <0>         0.1269
     28 H11         0.6470   -0.3643   -0.9137 H         1 <0>         0.0287
     29 H12         1.1642   -1.8728   -0.8450 H         1 <0>         0.1472
     30 H13         2.2727   -2.8838    0.1428 H         1 <0>         0.1434
     31 H14        -1.9496   -2.7170   -0.2779 H         1 <0>         0.1488
     32 H15        -2.0239   -4.0486    0.9254 H         1 <0>         0.1406
     33 H16        -2.5793   -1.3450    1.7712 H         1 <0>         0.3409
     34 H17        -1.2541   -0.4890    2.2976 H         1 <0>         0.3624
     35 H18         3.1321    3.9344    1.3978 H         1 <0>         0.4020
     36 H19         4.7762    3.5929    1.4530 H         1 <0>         0.4025
@<TRIPOS>BOND
     1    1    7 1
     2    1    2 1
     3    1   21 1
     4    1   22 1
     5    2    3 1
     6    2   23 1
     7    2   24 1
     8    3    4 1
     9    3    5 1
    10    3   18 1
    11    5    6 1
    12    5   25 1
    13    5   26 1
    14    6    7 1
    15    6    8 1
    16    7   27 1
    17    7   28 1
    18    8    9 1
    19    8   15 1
    20    8   10 1
    21   10   11 1
    22   10   29 1
    23   10   30 1
    24   11   12 2
    25   11   13 2
    26   11   14 1
    27   14   15 1
    28   14   31 1
    29   14   32 1
    30   15   16 1
    31   15   17 1
    32   17   33 1
    33   17   34 1
    34   18   19 2
    35   18   20 am
    36   20   35 1
    37   20   36 1
@<TRIPOS>MOLECULE
ZINC62843915
   38    38     0     0     0
SMALL
USER_CHARGES

@<TRIPOS>ATOM
      1 C1         -0.0193    1.5247    0.0116 C.3       1 <0>        -0.1239
      2 C2          0.0018   -0.0051   -0.0023 C.3       1 <0>        -0.1307
      3 C3          0.7192   -0.4936   -1.2628 C.3       1 <0>        -0.1071
      4 C4          2.1449    0.0666   -1.2836 C.3       1 <0>         0.1271
      5 N1          2.8149   -0.2986   -0.0281 N.am      1 <0>        -0.6146
      6 C5          2.1656    0.0438    1.2447 C.3       1 <0>         0.1099
      7 C6          0.7397   -0.5162    1.2372 C.3       1 <0>        -0.0993
      8 C7          4.0023   -0.9361   -0.0436 C.2       1 <0>         0.7075
      9 O1          4.4838   -1.2989   -1.0994 O.2       1 <0>        -0.5930
     10 N2          4.6559   -1.1714    1.1114 N.am      1 <0>        -0.7570
     11 C8          5.9949   -1.7654    1.0873 C.3       1 <0>         0.1435
     12 C9          6.5076   -1.9253    2.5200 C.3       1 <0>        -0.1670
     13 C10         7.9060   -2.5456    2.4949 C.3       1 <0>        -0.0036
     14 N3          8.3983   -2.6992    3.8704 N.4       1 <0>        -0.6367
     15 C11        -1.4120   -0.5268    0.0044 C.2       1 <0>         0.5013
     16 O2         -2.1740   -0.2343   -0.9013 O.co2     1 <0>        -0.6920
     17 O3         -1.7938   -1.2414    0.9155 O.co2     1 <0>        -0.6979
     18 H1          1.0032    1.9022    0.0073 H         1 <0>         0.0399
     19 H2         -0.5449    1.8889   -0.8711 H         1 <0>         0.0590
     20 H3         -0.5313    1.8728    0.9087 H         1 <0>         0.0461
     21 H4          0.7564   -1.5830   -1.2612 H         1 <0>         0.0572
     22 H5          0.1799   -0.1488   -2.1451 H         1 <0>         0.0810
     23 H6          2.6916   -0.3568   -2.1262 H         1 <0>         0.0881
     24 H7          2.1096    1.1521   -1.3766 H         1 <0>         0.0689
     25 H8          2.7260   -0.3947    2.0704 H         1 <0>         0.0613
     26 H9          2.1320    1.1274    1.3579 H         1 <0>         0.0713
     27 H10         0.2150   -0.1875    2.1343 H         1 <0>         0.0745
     28 H11         0.7767   -1.6053    1.2153 H         1 <0>         0.0625
     29 H12         4.2398   -0.9474    1.9585 H         1 <0>         0.3978
     30 H13         5.9503   -2.7424    0.6062 H         1 <0>         0.0750
     31 H14         6.6703   -1.1164    0.5300 H         1 <0>         0.0732
     32 H15         6.5522   -0.9482    3.0011 H         1 <0>         0.0945
     33 H16         5.8322   -2.5743    3.0773 H         1 <0>         0.0957
     34 H17         7.8615   -3.5227    2.0137 H         1 <0>         0.1388
     35 H18         8.5815   -1.8966    1.9375 H         1 <0>         0.1382
     36 H19         9.3205   -3.1083    3.8538 H         1 <0>         0.4390
     37 H20         8.4396   -1.7947    4.3158 H         1 <0>         0.4354
     38 H21         7.7731   -3.2999    4.3863 H         1 <0>         0.4361
@<TRIPOS>BOND
     1    1    2 1
     2    1   18 1
     3    1   19 1
     4    1   20 1
     5    2    7 1
     6    2    3 1
     7    2   15 1
     8    3    4 1
     9    3   21 1
    10    3   22 1
    11    4    5 1
    12    4   23 1
    13    4   24 1
    14    5    6 1
    15    5    8 am
    16    6    7 1
    17    6   25 1
    18    6   26 1
    19    7   27 1
    20    7   28 1
    21    8    9 2
    22    8   10 am
    23   10   11 1
    24   10   29 1
    25   11   12 1
    26   11   30 1
    27   11   31 1
    28   12   13 1
    29   12   32 1
    30   12   33 1
    31   13   14 1
    32   13   34 1
    33   13   35 1
    34   14   36 1
    35   14   37 1
    36   14   38 1
    37   15   16 2
    38   15   17 1
@<TRIPOS>MOLECULE
ZINC05600629
   25    26     0     0     0
SMALL
USER_CHARGES

@<TRIPOS>ATOM
      1 C1         -0.0175    1.4373    0.0099 C.3       1 <0>         0.0236
      2 C2          1.3906    2.0249   -0.0003 C.3       1 <0>         0.0384
      3 H1          1.3285    3.1008    0.1629 H         1 <0>         0.0925
      4 C3          2.2730    1.3998    1.0965 C.3       1 <0>         0.1229
      5 H2          1.8900    1.6669    2.0814 H         1 <0>         0.0926
      6 C4          2.2032   -0.1018    0.9017 C.3       1 <0>         0.0326
      7 H3          2.5254   -0.3689   -0.1047 H         1 <0>         0.1326
      8 C5          0.7106   -0.4928    1.1194 C.3       1 <0>         0.2838
      9 O1          0.0021   -0.0041    0.0020 O.3       1 <0>        -0.3302
     10 N1          0.8459   -1.9241    1.3331 N.pl3     1 <0>        -0.6468
     11 C6          2.1003   -2.1060    1.8357 C.2       1 <0>         0.4840
     12 S1          2.7107   -3.6171    2.3599 S.2       1 <0>        -0.4486
     13 O2          2.8283   -0.9432    1.8612 O.3       1 <0>        -0.2548
     14 C7          0.1843    0.1692    2.3944 C.3       1 <0>         0.0306
     15 O3         -1.1844   -0.1927    2.5890 O.3       1 <0>        -0.5515
     16 O4          3.6215    1.8516    0.9568 O.3       1 <0>        -0.5329
     17 O5          1.9890    1.7803   -1.2747 O.3       1 <0>        -0.5441
     18 H4         -0.5386    1.7802    0.9038 H         1 <0>         0.0824
     19 H5         -0.5556    1.7897   -0.8700 H         1 <0>         0.1237
     20 H6          0.1814   -2.6081    1.1554 H         1 <0>         0.4549
     21 H7          0.7736   -0.1661    3.2478 H         1 <0>         0.0714
     22 H8          0.2640    1.2523    2.3009 H         1 <0>         0.0757
     23 H9         -1.5842    0.1922    3.3808 H         1 <0>         0.3912
     24 H10         3.7243    2.8105    1.0272 H         1 <0>         0.3889
     25 H11         1.5075    2.1708   -2.0168 H         1 <0>         0.3872
@<TRIPOS>BOND
     1    1    9 1
     2    1    2 1
     3    1   18 1
     4    1   19 1
     5    2    3 1
     6    2    4 1
     7    2   17 1
     8    4    5 1
     9    4    6 1
    10    4   16 1
    11    6    7 1
    12    6   13 1
    13    6    8 1
    14    8    9 1
    15    8   10 1
    16    8   14 1
    17   10   11 1
    18   10   20 1
    19   11   12 2
    20   11   13 1
    21   14   15 1
    22   14   21 1
    23   14   22 1
    24   15   23 1
    25   16   24 1
    26   17   25 1
@<TRIPOS>MOLECULE
ZINC42425070
   37    37     0     0     0
SMALL
USER_CHARGES

@<TRIPOS>ATOM
      1 C1         -0.4137    1.5034   -0.5939 C.3       1 <0>         0.0933
      2 N1         -0.3724    0.0416   -0.6817 N.am      1 <0>        -0.7323
      3 C2         -1.1808   -0.7034    0.0979 C.2       1 <0>         0.5286
      4 O1         -1.9425   -0.1637    0.8721 O.2       1 <0>        -0.5184
      5 C3         -1.1383   -2.2071    0.0075 C.3       1 <0>         0.1263
      6 H1         -0.4016   -2.5077   -0.7375 H         1 <0>         0.0926
      7 C4         -0.7584   -2.7930    1.3710 C.3       1 <0>        -0.1220
      8 C5         -0.8525   -4.3193    1.3101 C.3       1 <0>        -0.1211
      9 C6         -2.2916   -4.7310    0.9914 C.3       1 <0>        -0.1326
     10 C7         -2.6889   -4.1671   -0.3764 C.3       1 <0>         0.0515
     11 N2         -2.4625   -2.7151   -0.3763 N.am      1 <0>        -0.5729
     12 C8         -3.4513   -1.8654   -0.7181 C.2       1 <0>         0.5048
     13 O2         -3.2195   -0.6799   -0.8341 O.2       1 <0>        -0.4781
     14 C9         -4.8332   -2.3833   -0.9544 C.2       1 <0>         0.5197
     15 O3         -5.0943   -3.5448   -0.7193 O.2       1 <0>        -0.5130
     16 N3         -5.7893   -1.5603   -1.4286 N.am      1 <0>        -0.6856
     17 C10        -7.1439   -2.0679   -1.6601 C.3       1 <0>         0.1278
     18 C11        -8.0139   -0.9559   -2.1871 C.2       1 <0>         0.2642
     19 S1         -7.3999    0.5043   -2.4056 S.2       1 <0>        -0.4104
     20 N4         -9.3093   -1.1921   -2.4741 N.pl3     1 <0>        -0.7695
     21 H2          0.3046    1.9299   -1.2941 H         1 <0>         0.0721
     22 H3         -1.4154    1.8542   -0.8422 H         1 <0>         0.0631
     23 H4         -0.1610    1.8138    0.4200 H         1 <0>         0.0566
     24 H5          0.2368   -0.3900   -1.3010 H         1 <0>         0.3973
     25 H6          0.2616   -2.5010    1.6210 H         1 <0>         0.0809
     26 H7         -1.4420   -2.4165    2.1320 H         1 <0>         0.0808
     27 H8         -0.1870   -4.6933    0.5320 H         1 <0>         0.0669
     28 H9         -0.5589   -4.7399    2.2718 H         1 <0>         0.0724
     29 H10        -2.3629   -5.8185    0.9712 H         1 <0>         0.0793
     30 H11        -2.9607   -4.3363    1.7560 H         1 <0>         0.0686
     31 H12        -2.0800   -4.6297   -1.1532 H         1 <0>         0.0669
     32 H13        -3.7427   -4.3728   -0.5643 H         1 <0>         0.1586
     33 H14        -5.5806   -0.6318   -1.6165 H         1 <0>         0.4319
     34 H15        -7.1087   -2.8780   -2.3886 H         1 <0>         0.1125
     35 H16        -7.5577   -2.4399   -0.7229 H         1 <0>         0.1122
     36 H17        -9.6818   -2.0779   -2.3415 H         1 <0>         0.4024
     37 H18        -9.8693   -0.4764   -2.8133 H         1 <0>         0.4246
@<TRIPOS>BOND
     1    1    2 1
     2    1   21 1
     3    1   22 1
     4    1   23 1
     5    2    3 am
     6    2   24 1
     7    3    4 2
     8    3    5 1
     9    5    6 1
    10    5   11 1
    11    5    7 1
    12    7    8 1
    13    7   25 1
    14    7   26 1
    15    8    9 1
    16    8   27 1
    17    8   28 1
    18    9   10 1
    19    9   29 1
    20    9   30 1
    21   10   11 1
    22   10   31 1
    23   10   32 1
    24   11   12 am
    25   12   13 2
    26   12   14 1
    27   14   15 2
    28   14   16 am
    29   16   17 1
    30   16   33 1
    31   17   18 1
    32   17   34 1
    33   17   35 1
    34   18   19 2
    35   18   20 1
    36   20   36 1
    37   20   37 1
@<TRIPOS>MOLECULE
ZINC48949741
   38    38     0     0     0
SMALL
USER_CHARGES

@<TRIPOS>ATOM
      1 C1          0.5679    1.5151   -0.1030 C.3       1 <0>        -0.1733
      2 C2          0.3573    0.0234   -0.0628 C.2       1 <0>         0.5185
      3 O1          0.2945   -0.5516    1.0032 O.2       1 <0>        -0.5398
      4 N1          0.2385   -0.6716   -1.2114 N.am      1 <0>        -0.7091
      5 C3          0.1391   -2.1328   -1.1765 C.3       1 <0>         0.1414
      6 H1          0.5156   -2.4998   -0.2217 H         1 <0>         0.1243
      7 C4         -1.3240   -2.5485   -1.3416 C.3       1 <0>        -0.0984
      8 C5         -1.9220   -1.8887   -2.6013 C.3       1 <0>        -0.1213
      9 C6         -3.3774   -1.5467   -2.1964 C.3       1 <0>        -0.1237
     10 C7         -3.2256   -1.0981   -0.7217 C.3       1 <0>        -0.1215
     11 C8         -2.1529   -2.0459   -0.1465 C.3       1 <0>        -0.1300
     12 C9          0.9575   -2.7189   -2.2980 C.2       1 <0>         0.5135
     13 O2          1.2806   -2.0257   -3.2393 O.2       1 <0>        -0.5210
     14 N2          1.3303   -4.0133   -2.2549 N.am      1 <0>        -0.5265
     15 N3          2.1840   -4.5295   -3.2386 N.am      1 <0>        -0.5312
     16 C10         2.5569   -5.8240   -3.1956 C.2       1 <0>         0.7118
     17 O3          3.2977   -6.2719   -4.0493 O.2       1 <0>        -0.5652
     18 N4          2.1085   -6.6218   -2.2062 N.am      1 <0>        -0.7473
     19 C11         2.5137   -8.0289   -2.1594 C.3       1 <0>         0.1024
     20 H2          1.6361    1.7305   -0.1306 H         1 <0>         0.0976
     21 H3          0.0914    1.9255   -0.9932 H         1 <0>         0.0824
     22 H4          0.1288    1.9682    0.7858 H         1 <0>         0.0970
     23 H5          0.2189   -0.2043   -2.0612 H         1 <0>         0.4124
     24 H6         -1.3974   -3.6334   -1.4169 H         1 <0>         0.0848
     25 H7         -1.3731   -0.9814   -2.8538 H         1 <0>         0.0713
     26 H8         -1.9128   -2.5867   -3.4384 H         1 <0>         0.0662
     27 H9         -3.7680   -0.7342   -2.8091 H         1 <0>         0.0673
     28 H10        -4.0155   -2.4275   -2.2686 H         1 <0>         0.0676
     29 H11        -2.8872   -0.0632   -0.6707 H         1 <0>         0.0625
     30 H12        -4.1678   -1.2192   -0.1872 H         1 <0>         0.0655
     31 H13        -2.6292   -2.8868    0.3576 H         1 <0>         0.0670
     32 H14        -1.5127   -1.5058    0.5510 H         1 <0>         0.0887
     33 H15         1.0076   -4.5876   -1.5429 H         1 <0>         0.4210
     34 H16         2.5067   -3.9553   -3.9506 H         1 <0>         0.4443
     35 H17         1.5174   -6.2645   -1.5252 H         1 <0>         0.3926
     36 H18         3.5988   -8.0919   -2.0772 H         1 <0>         0.0638
     37 H19         2.0553   -8.5105   -1.2957 H         1 <0>         0.0809
     38 H20         2.1886   -8.5311   -3.0706 H         1 <0>         0.0638
@<TRIPOS>BOND
     1    1    2 1
     2    1   20 1
     3    1   21 1
     4    1   22 1
     5    2    3 2
     6    2    4 am
     7    4    5 1
     8    4   23 1
     9    5    6 1
    10    5    7 1
    11    5   12 1
    12    7   11 1
    13    7    8 1
    14    7   24 1
    15    8    9 1
    16    8   25 1
    17    8   26 1
    18    9   10 1
    19    9   27 1
    20    9   28 1
    21   10   11 1
    22   10   29 1
    23   10   30 1
    24   11   31 1
    25   11   32 1
    26   12   13 2
    27   12   14 am
    28   14   15 1
    29   14   33 1
    30   15   16 am
    31   15   34 1
    32   16   17 2
    33   16   18 am
    34   18   19 1
    35   18   35 1
    36   19   36 1
    37   19   37 1
    38   19   38 1
@<TRIPOS>MOLECULE
ZINC36998498
   33    35     0     0     0
SMALL
USER_CHARGES

@<TRIPOS>ATOM
      1 C1         -0.0167    1.3803    0.0096 C.ar      1 <0>        -0.1055
      2 C2          1.1644    2.0936    0.0022 C.ar      1 <0>        -0.1141
      3 C3          2.3862    1.4244   -0.0130 C.ar      1 <0>         0.1509
      4 C4          2.3929    0.0352   -0.0205 C.ar      1 <0>        -0.1344
      5 C5          1.2145   -0.6760   -0.0131 C.ar      1 <0>        -0.0794
      6 C6          0.0021   -0.0041    0.0020 C.ar      1 <0>         0.0744
      7 F1         -1.1572   -0.6977    0.0102 F         1 <0>        -0.1336
      8 C7          3.8452   -0.3830   -0.0361 C.3       1 <0>         0.1854
      9 H1          4.0849   -0.9639    0.8546 H         1 <0>         0.1277
     10 C8          4.6057    0.9259   -0.0361 C.2       1 <0>         0.5107
     11 O1          5.8113    1.0586   -0.0464 O.2       1 <0>        -0.4745
     12 N1          3.6943    1.9132   -0.0224 N.am      1 <0>        -0.6618
     13 N2          4.1444   -1.1536   -1.2456 N.pl3     1 <0>        -0.7158
     14 C9          5.2148   -2.0683   -1.2508 C.2       1 <0>         0.0612
     15 C10         6.0687   -2.3458   -0.1737 C.2       1 <0>         0.0216
     16 N3          6.9365   -3.2472   -0.5572 N.2       1 <0>        -0.2425
     17 N4          6.6686   -3.5778   -1.8918 N.pl3     1 <0>        -0.3655
     18 C11         5.5994   -2.8422   -2.2971 C.2       1 <0>        -0.0184
     19 C12         7.4066   -4.5475   -2.7050 C.3       1 <0>         0.1255
     20 C13         8.8709   -4.1914   -2.7058 C.2       1 <0>         0.4992
     21 O2          9.2598   -3.2229   -2.0879 O.2       1 <0>        -0.5081
     22 N5          9.7484   -4.9490   -3.3932 N.am      1 <0>        -0.8549
     23 H2         -0.9607    1.9046    0.0260 H         1 <0>         0.1466
     24 H3          1.1416    3.1733    0.0078 H         1 <0>         0.1404
     25 H4          1.2344   -1.7558   -0.0193 H         1 <0>         0.1450
     26 H5          3.9191    2.8568   -0.0201 H         1 <0>         0.4153
     27 H6          3.6051   -1.0337   -2.0429 H         1 <0>         0.4056
     28 H7          6.0188   -1.8929    0.8054 H         1 <0>         0.1787
     29 H8          5.1407   -2.8677   -3.2745 H         1 <0>         0.1720
     30 H9          7.2758   -5.5460   -2.2878 H         1 <0>         0.1144
     31 H10         7.0274   -4.5281   -3.7268 H         1 <0>         0.1252
     32 H11         9.4373   -5.7236   -3.8874 H         1 <0>         0.4022
     33 H12        10.6909   -4.7198   -3.3937 H         1 <0>         0.4068
@<TRIPOS>BOND
     1    1    6 ar
     2    1    2 ar
     3    1   23 1
     4    2    3 ar
     5    2   24 1
     6    3   12 1
     7    3    4 ar
     8    4    5 ar
     9    4    8 1
    10    5    6 ar
    11    5   25 1
    12    6    7 1
    13    8    9 1
    14    8   10 1
    15    8   13 1
    16   10   11 2
    17   10   12 am
    18   12   26 1
    19   13   14 1
    20   13   27 1
    21   14   18 2
    22   14   15 1
    23   15   16 2
    24   15   28 1
    25   16   17 1
    26   17   18 1
    27   17   19 1
    28   18   29 1
    29   19   20 1
    30   19   30 1
    31   19   31 1
    32   20   21 2
    33   20   22 am
    34   22   32 1
    35   22   33 1
@<TRIPOS>MOLECULE
ZINC63138947
   33    34     0     0     0
SMALL
USER_CHARGES

@<TRIPOS>ATOM
      1 C1         -0.0184    1.5028    0.0103 C.3       1 <0>        -0.0818
      2 C2          0.0021   -0.0041    0.0020 C.2       1 <0>         0.0635
      3 C3          0.0059   -0.7076   -1.1591 C.2       1 <0>        -0.2312
      4 S1          0.0324   -2.3789   -0.5312 S.3       1 <0>         0.1061
      5 C4          0.0357   -2.0088    1.1107 C.2       1 <0>         0.0558
      6 N1          0.0226   -0.6992    1.1217 N.2       1 <0>        -0.5091
      7 C5          0.0549   -2.9548    2.2837 C.3       1 <0>        -0.0415
      8 C6         -1.3810   -3.2955    2.6876 C.3       1 <0>         0.1251
      9 N2         -1.3623   -4.2151    3.8279 N.am      1 <0>        -0.7253
     10 C7         -2.5208   -4.6547    4.3581 C.2       1 <0>         0.6069
     11 O1         -3.5823   -4.2878    3.8897 O.2       1 <0>        -0.5323
     12 C8         -2.5021   -5.5760    5.5005 C.2       1 <0>        -0.3661
     13 C9         -2.5062   -5.2196    6.8697 C.2       1 <0>         0.1475
     14 N3         -2.4859   -6.3148    7.5751 N.2       1 <0>        -0.3004
     15 N4         -2.4679   -7.4173    6.7141 N.pl3     1 <0>        -0.4938
     16 H1         -2.4514   -8.3483    6.9858 H         1 <0>         0.4397
     17 C10        -2.4830   -6.9677    5.4428 C.2       1 <0>         0.4130
     18 N5         -2.4774   -7.7409    4.2997 N.pl3     1 <0>        -0.8427
     19 C11        -2.5296   -3.8159    7.4175 C.3       1 <0>        -0.0801
     20 H2          1.0042    1.8801    0.0026 H         1 <0>         0.0755
     21 H3         -0.5455    1.8639   -0.8728 H         1 <0>         0.0757
     22 H4         -0.5286    1.8543    0.9071 H         1 <0>         0.0758
     23 H5         -0.0043   -0.3543   -2.1797 H         1 <0>         0.1969
     24 H6          0.5804   -3.8682    2.0052 H         1 <0>         0.0975
     25 H7          0.5661   -2.4828    3.1227 H         1 <0>         0.1058
     26 H8         -1.9065   -2.3820    2.9661 H         1 <0>         0.0774
     27 H9         -1.8922   -3.7674    1.8486 H         1 <0>         0.0721
     28 H10        -0.5162   -4.5075    4.2013 H         1 <0>         0.4030
     29 H11        -2.4872   -7.3169    3.4273 H         1 <0>         0.4198
     30 H12        -2.4637   -8.7084    4.3686 H         1 <0>         0.4063
     31 H13        -3.5627   -3.4952    7.5510 H         1 <0>         0.0840
     32 H14        -2.0147   -3.7921    8.3779 H         1 <0>         0.0799
     33 H15        -2.0282   -3.1452    6.7197 H         1 <0>         0.0768
@<TRIPOS>BOND
     1    1    2 1
     2    1   20 1
     3    1   21 1
     4    1   22 1
     5    2    6 1
     6    2    3 2
     7    3    4 1
     8    3   23 1
     9    4    5 1
    10    5    6 2
    11    5    7 1
    12    7    8 1
    13    7   24 1
    14    7   25 1
    15    8    9 1
    16    8   26 1
    17    8   27 1
    18    9   10 am
    19    9   28 1
    20   10   11 2
    21   10   12 1
    22   12   17 2
    23   12   13 1
    24   13   14 2
    25   13   19 1
    26   14   15 1
    27   15   16 1
    28   15   17 1
    29   17   18 1
    30   18   29 1
    31   18   30 1
    32   19   31 1
    33   19   32 1
    34   19   33 1
@<TRIPOS>MOLECULE
ZINC01595918
   26    26     0     0     0
SMALL
USER_CHARGES
(4-ethyl-2,5-dioxo-imidazolidin-4-yl)methyleneaminourea
@<TRIPOS>ATOM
      1 C1          3.1509    3.0455   -1.2436 C.3       1 <0>        -0.1659
      2 C2          1.6866    2.6019   -1.2585 C.3       1 <0>        -0.1116
      3 C3          1.3895    1.7816   -0.0016 C.3       1 <0>         0.1799
      4 C4          2.1699    0.4822   -0.0161 C.2       1 <0>         0.5402
      5 O1          3.3752    0.3520   -0.0279 O.2       1 <0>        -0.4472
      6 N1          1.2453   -0.4983   -0.0125 N.am      1 <0>        -0.6766
      7 C5          0.0021   -0.0041    0.0020 C.2       1 <0>         0.7065
      8 O2         -0.9989   -0.6933    0.0079 O.2       1 <0>        -0.5322
      9 N2         -0.0162    1.3411    0.0094 N.am      1 <0>        -0.7078
     10 C6          1.7058    2.5763    1.2391 C.2       1 <0>         0.0690
     11 N3          0.7941    2.7908    2.1115 N.2       1 <0>        -0.2257
     12 N4          1.0881    3.5297    3.2650 N.am      1 <0>        -0.5851
     13 C7          0.1281    3.7556    4.1836 C.2       1 <0>         0.7346
     14 O3          0.3834    4.3968    5.1847 O.2       1 <0>        -0.5770
     15 N5         -1.1148    3.2707    3.9926 N.am      1 <0>        -0.8472
     16 H1          3.3369    3.6551   -0.3594 H         1 <0>         0.0613
     17 H2          3.7963    2.1674   -1.2218 H         1 <0>         0.0762
     18 H3          3.3626    3.6300   -2.1390 H         1 <0>         0.0711
     19 H4          1.5006    1.9923   -2.1427 H         1 <0>         0.0878
     20 H5          1.0412    3.4800   -1.2802 H         1 <0>         0.0921
     21 H6          1.4552   -1.4453   -0.0201 H         1 <0>         0.4378
     22 H7         -0.8018    1.9100    0.0164 H         1 <0>         0.4456
     23 H8          2.7018    2.9648    1.3921 H         1 <0>         0.1421
     24 H9          1.9827    3.8786    3.4025 H         1 <0>         0.4065
     25 H10        -1.3184    2.7591    3.1940 H         1 <0>         0.4079
     26 H11        -1.8057    3.4333    4.6537 H         1 <0>         0.4177
@<TRIPOS>BOND
     1    1    2 1
     2    1   16 1
     3    1   17 1
     4    1   18 1
     5    2    3 1
     6    2   19 1
     7    2   20 1
     8    3    9 1
     9    3    4 1
    10    3   10 1
    11    4    5 2
    12    4    6 am
    13    6    7 am
    14    6   21 1
    15    7    8 2
    16    7    9 am
    17    9   22 1
    18   10   11 2
    19   10   23 1
    20   11   12 1
    21   12   13 am
    22   12   24 1
    23   13   14 2
    24   13   15 am
    25   15   25 1
    26   15   26 1
@<TRIPOS>MOLECULE
ZINC37333536
   38    39     0     0     0
SMALL
USER_CHARGES

@<TRIPOS>ATOM
      1 C1         -0.0167    1.3779    0.0096 C.ar      1 <0>        -0.0711
      2 C2          1.1692    2.0897    0.0021 C.ar      1 <0>        -0.0996
      3 C3          2.3812    1.4171   -0.0131 C.ar      1 <0>         0.1516
      4 C4          2.4001    0.0221   -0.0208 C.ar      1 <0>         0.1948
      5 C5          1.2068   -0.6833   -0.0132 C.ar      1 <0>        -0.0969
      6 C6          0.0021   -0.0041    0.0020 C.ar      1 <0>        -0.6286
      7 S1         -1.5132   -0.9032    0.0123 S.o2      1 <0>         2.7009
      8 O1         -1.2216   -2.1844    0.5534 O.2       1 <0>        -0.9645
      9 O2         -2.4924   -0.0424    0.5775 O.2       1 <0>        -0.9630
     10 N1         -1.9500   -1.1446   -1.5667 N.pl3     1 <0>        -1.2500
     11 N2          3.6209   -0.6635   -0.0366 N.pl3     1 <0>        -0.8682
     12 N3          3.5829    2.1356   -0.0212 N.pl3     1 <0>        -0.6750
     13 C7          4.2099    2.5314   -1.2896 C.3       1 <0>         0.1409
     14 C8          4.4622    4.0421   -1.2646 C.3       1 <0>        -0.1352
     15 C9          5.2802    4.3982   -0.0211 C.3       1 <0>        -0.1069
     16 C10         4.4928    4.0191    1.2353 C.3       1 <0>        -0.1259
     17 H1          3.5392    4.5470    1.2400 H         1 <0>         0.1011
     18 C11         4.2377    2.5133    1.2387 C.3       1 <0>         0.1640
     19 C12         5.2849    4.4004    2.4594 C.2       1 <0>         0.5233
     20 O3          5.6137    3.5491    3.2582 O.2       1 <0>        -0.5411
     21 N4          5.6277    5.6872    2.6664 N.am      1 <0>        -0.8546
     22 H2         -0.9600    1.9035    0.0260 H         1 <0>         0.1405
     23 H3          1.1509    3.1695    0.0078 H         1 <0>         0.1316
     24 H4          1.2178   -1.7632   -0.0195 H         1 <0>         0.1410
     25 H5         -1.3903   -0.8044   -2.2822 H         1 <0>         0.4167
     26 H6         -2.7656   -1.6261   -1.7762 H         1 <0>         0.4208
     27 H7          4.4550   -0.1685   -0.0422 H         1 <0>         0.4027
     28 H8          3.6324   -1.6334   -0.0419 H         1 <0>         0.4002
     29 H9          5.1567    2.0047   -1.4091 H         1 <0>         0.0529
     30 H10         3.5455    2.2855   -2.1180 H         1 <0>         0.0724
     31 H11         5.0136    4.3337   -2.1585 H         1 <0>         0.0754
     32 H12         3.5089    4.5698   -1.2363 H         1 <0>         0.0687
     33 H13         6.2229    3.8512   -0.0377 H         1 <0>         0.0695
     34 H14         5.4822    5.4693   -0.0137 H         1 <0>         0.0677
     35 H15         3.5916    2.2556    2.0779 H         1 <0>         0.0769
     36 H16         5.1868    1.9852    1.3299 H         1 <0>         0.0623
     37 H17         5.3647    6.3680    2.0274 H         1 <0>         0.4016
     38 H18         6.1375    5.9326    3.4543 H         1 <0>         0.4029
@<TRIPOS>BOND
     1    1    6 ar
     2    1    2 ar
     3    1   22 1
     4    2    3 ar
     5    2   23 1
     6    3    4 ar
     7    3   12 1
     8    4    5 ar
     9    4   11 1
    10    5    6 ar
    11    5   24 1
    12    6    7 1
    13    7    8 2
    14    7    9 2
    15    7   10 1
    16   10   25 1
    17   10   26 1
    18   11   27 1
    19   11   28 1
    20   12   18 1
    21   12   13 1
    22   13   14 1
    23   13   29 1
    24   13   30 1
    25   14   15 1
    26   14   31 1
    27   14   32 1
    28   15   16 1
    29   15   33 1
    30   15   34 1
    31   16   17 1
    32   16   18 1
    33   16   19 1
    34   18   35 1
    35   18   36 1
    36   19   20 2
    37   19   21 am
    38   21   37 1
    39   21   38 1
@<TRIPOS>MOLECULE
ZINC43509354
   36    36     0     0     0
SMALL
USER_CHARGES

@<TRIPOS>ATOM
      1 C1         -0.0630    1.6963    0.9517 C.3       1 <0>        -0.1910
      2 C2         -0.0706    0.2099    0.5890 C.3       1 <0>         0.0823
      3 C3          0.5202    0.0219   -0.8107 C.3       1 <0>         0.0732
      4 H1          1.5292    0.4335   -0.8377 H         1 <0>         0.0874
      5 O1          0.5655   -1.3717   -1.1239 O.3       1 <0>        -0.3715
      6 C4          1.3812   -2.1423   -0.2391 C.3       1 <0>         0.2579
      7 C5          0.8249   -2.0412    1.1836 C.3       1 <0>         0.1482
      8 C6          0.7761   -0.5682    1.6009 C.3       1 <0>         0.1650
      9 C7          0.1485   -0.4506    2.9913 C.3       1 <0>        -0.1763
     10 O2          2.1014   -0.0343    1.6261 O.3       1 <0>        -0.5168
     11 C8         -0.5862   -2.6311    1.2240 C.3       1 <0>        -0.1801
     12 O3          1.6716   -2.7636    2.0799 O.3       1 <0>        -0.5345
     13 C9          1.3770   -3.6057   -0.6857 C.3       1 <0>        -0.1748
     14 O4          2.7187   -1.6398   -0.2647 O.3       1 <0>        -0.5385
     15 C10        -0.3543    0.7472   -1.8354 C.3       1 <0>         0.0771
     16 O5          0.2585    0.6703   -3.1241 O.3       1 <0>        -0.5614
     17 O6         -1.4126   -0.2804    0.6120 O.3       1 <0>        -0.5360
     18 H2          0.9607    2.0700    0.9317 H         1 <0>         0.0737
     19 H3         -0.6657    2.2492    0.2311 H         1 <0>         0.0710
     20 H4         -0.4787    1.8287    1.9506 H         1 <0>         0.0785
     21 H5         -0.8607   -0.8620    2.9703 H         1 <0>         0.0787
     22 H6          0.7519   -1.0047    3.7103 H         1 <0>         0.0736
     23 H7          0.1071    0.5986    3.2837 H         1 <0>         0.0592
     24 H8          2.1449    0.8988    1.8763 H         1 <0>         0.3663
     25 H9         -0.5326   -3.7112    1.0872 H         1 <0>         0.0585
     26 H10        -1.0453   -2.4092    2.1874 H         1 <0>         0.0741
     27 H11        -1.1860   -2.1932    0.4262 H         1 <0>         0.1022
     28 H12         1.7528   -3.7045    1.8719 H         1 <0>         0.3731
     29 H13         1.7722   -3.6774   -1.6991 H         1 <0>         0.0733
     30 H14         1.9992   -4.1934   -0.0107 H         1 <0>         0.0807
     31 H15         0.3568   -3.9888   -0.6656 H         1 <0>         0.0785
     32 H16         3.1345   -1.6725   -1.1371 H         1 <0>         0.3730
     33 H17        -1.3371    0.2772   -1.8718 H         1 <0>         0.0552
     34 H18        -0.4620    1.7926   -1.5461 H         1 <0>         0.0644
     35 H19        -0.2424    1.1102   -3.8246 H         1 <0>         0.3824
     36 H20        -2.0055    0.1670   -0.0072 H         1 <0>         0.3735
@<TRIPOS>BOND
     1    1    2 1
     2    1   18 1
     3    1   19 1
     4    1   20 1
     5    2    8 1
     6    2    3 1
     7    2   17 1
     8    3    4 1
     9    3    5 1
    10    3   15 1
    11    5    6 1
    12    6    7 1
    13    6   13 1
    14    6   14 1
    15    7    8 1
    16    7   11 1
    17    7   12 1
    18    8    9 1
    19    8   10 1
    20    9   21 1
    21    9   22 1
    22    9   23 1
    23   10   24 1
    24   11   25 1
    25   11   26 1
    26   11   27 1
    27   12   28 1
    28   13   29 1
    29   13   30 1
    30   13   31 1
    31   14   32 1
    32   15   16 1
    33   15   33 1
    34   15   34 1
    35   16   35 1
    36   17   36 1
@<TRIPOS>MOLECULE
ZINC50397407
   35    36     0     0     0
SMALL
USER_CHARGES

@<TRIPOS>ATOM
      1 C1         -0.0167    1.3833    0.0096 C.ar      1 <0>        -0.1973
      2 C2          1.1775    2.0905    0.0020 C.ar      1 <0>         0.2395
      3 C3          2.3875    1.4075   -0.0132 C.ar      1 <0>        -0.1496
      4 C4          2.4027    0.0259   -0.0207 C.ar      1 <0>        -0.5813
      5 C5          1.2159   -0.6810   -0.0137 C.ar      1 <0>        -0.1460
      6 C6          0.0021   -0.0041    0.0020 C.ar      1 <0>         0.2466
      7 N1         -1.1974   -0.7196    0.0101 N.pl3     1 <0>        -0.7268
      8 C7         -2.4763   -0.0052    0.0266 C.3       1 <0>         0.1431
      9 H1         -2.3759    0.9034    0.6202 H         1 <0>         0.1112
     10 C8         -3.5513   -0.9014    0.6466 C.3       1 <0>        -0.1312
     11 C9         -4.9202   -0.2538    0.4057 C.3       1 <0>        -0.1344
     12 C10        -5.2238   -0.2934   -1.0925 C.3       1 <0>         0.1053
     13 N2         -4.1027    0.2423   -1.8545 N.am      1 <0>        -0.7201
     14 C11        -2.8636    0.3570   -1.3784 C.2       1 <0>         0.4935
     15 O1         -2.0021    0.7792   -2.1205 O.2       1 <0>        -0.5318
     16 S1          3.9392   -0.8362   -0.0400 S.o2      1 <0>         2.7010
     17 O2          3.6788   -2.1181   -0.5953 O.2       1 <0>        -0.9641
     18 O3          4.8975    0.0541   -0.5953 O.2       1 <0>        -0.9641
     19 N3          4.3813   -1.0843    1.5365 N.pl3     1 <0>        -1.2498
     20 N4          1.1630    3.4871    0.0092 N.pl3     1 <0>        -0.8735
     21 H2         -0.9585    1.9117    0.0260 H         1 <0>         0.1229
     22 H3          3.3171    1.9572   -0.0195 H         1 <0>         0.1370
     23 H4          1.2313   -1.7609   -0.0200 H         1 <0>         0.1370
     24 H5         -1.1836   -1.6895    0.0048 H         1 <0>         0.4070
     25 H6         -3.5234   -1.8854    0.1786 H         1 <0>         0.0790
     26 H7         -3.3748   -0.9988    1.7178 H         1 <0>         0.0876
     27 H8         -5.6869   -0.8064    0.9489 H         1 <0>         0.0939
     28 H9         -4.9005    0.7810    0.7477 H         1 <0>         0.0767
     29 H10        -5.4060   -1.3242   -1.3961 H         1 <0>         0.0686
     30 H11        -6.1143    0.3015   -1.2955 H         1 <0>         0.0809
     31 H12        -4.2689    0.5318   -2.7652 H         1 <0>         0.4006
     32 H13         3.8133   -0.7656    2.2553 H         1 <0>         0.4169
     33 H14         5.2082   -1.5483    1.7410 H         1 <0>         0.4201
     34 H15         0.3180    3.9633    0.0195 H         1 <0>         0.3994
     35 H16         1.9980    3.9808    0.0039 H         1 <0>         0.4020
@<TRIPOS>BOND
     1    1    6 ar
     2    1    2 ar
     3    1   21 1
     4    2    3 ar
     5    2   20 1
     6    3    4 ar
     7    3   22 1
     8    4    5 ar
     9    4   16 1
    10    5    6 ar
    11    5   23 1
    12    6    7 1
    13    7    8 1
    14    7   24 1
    15    8    9 1
    16    8   14 1
    17    8   10 1
    18   10   11 1
    19   10   25 1
    20   10   26 1
    21   11   12 1
    22   11   27 1
    23   11   28 1
    24   12   13 1
    25   12   29 1
    26   12   30 1
    27   13   14 am
    28   13   31 1
    29   14   15 2
    30   16   17 2
    31   16   18 2
    32   16   19 1
    33   19   32 1
    34   19   33 1
    35   20   34 1
    36   20   35 1
@<TRIPOS>MOLECULE
ZINC63202291
   28    29     0     0     0
SMALL
USER_CHARGES

@<TRIPOS>ATOM
      1 C1         -0.0151    1.3810   -0.0326 C.ar      1 <0>        -0.1171
      2 C2          1.1264    2.0065    0.4343 C.ar      1 <0>        -0.1549
      3 C3          2.3379    1.3326    0.4294 C.ar      1 <0>         0.1887
      4 C4          2.4021    0.0231   -0.0468 C.ar      1 <0>         0.0958
      5 C5          1.2537   -0.5983   -0.5130 C.ar      1 <0>        -0.1183
      6 C6          0.0476    0.0815   -0.5054 C.ar      1 <0>         0.0575
      7 F1         -1.0707   -0.5248   -0.9605 F         1 <0>        -0.1418
      8 N1          3.6239   -0.6623   -0.0544 N.am      1 <0>        -0.6524
      9 C7          3.6438   -2.0053    0.0570 C.2       1 <0>         0.5929
     10 O1          2.5997   -2.6294    0.0800 O.2       1 <0>        -0.5255
     11 C8          4.9277   -2.7163    0.1508 C.2       1 <0>        -0.3287
     12 C9          4.9774   -4.0967    0.1452 C.2       1 <0>         0.2664
     13 N2          6.1816   -4.7193    0.2335 N.am      1 <0>        -0.6231
     14 H1          6.2154   -5.6887    0.2291 H         1 <0>         0.4471
     15 C10         7.3257   -4.0235    0.3263 C.2       1 <0>         0.6982
     16 O2          8.3773   -4.6283    0.4030 O.2       1 <0>        -0.5208
     17 N3          7.3462   -2.6797    0.3366 N.am      1 <0>        -0.6494
     18 H2          8.1929   -2.2113    0.4046 H         1 <0>         0.4393
     19 C11         6.1969   -1.9776    0.2473 C.2       1 <0>         0.5700
     20 O3          6.2096   -0.7609    0.2509 O.2       1 <0>        -0.5072
     21 N4          3.4949    1.9654    0.9011 N.pl3     1 <0>        -0.8760
     22 H3         -0.9588    1.9062   -0.0242 H         1 <0>         0.1362
     23 H4          1.0742    3.0205    0.8025 H         1 <0>         0.1358
     24 H5          1.3001   -1.6120   -0.8827 H         1 <0>         0.1612
     25 H6          4.4555   -0.1703   -0.1398 H         1 <0>         0.4200
     26 H7          4.0683   -4.6751    0.0716 H         1 <0>         0.2045
     27 H8          3.4491    2.8761    1.2317 H         1 <0>         0.4030
     28 H9          4.3420    1.4928    0.8972 H         1 <0>         0.3986
@<TRIPOS>BOND
     1    1    6 ar
     2    1    2 ar
     3    1   22 1
     4    2    3 ar
     5    2   23 1
     6    3    4 ar
     7    3   21 1
     8    4    5 ar
     9    4    8 1
    10    5    6 ar
    11    5   24 1
    12    6    7 1
    13    8    9 am
    14    8   25 1
    15    9   10 2
    16    9   11 1
    17   11   19 1
    18   11   12 2
    19   12   13 1
    20   12   26 1
    21   13   14 1
    22   13   15 am
    23   15   16 2
    24   15   17 am
    25   17   18 1
    26   17   19 am
    27   19   20 2
    28   21   27 1
    29   21   28 1
@<TRIPOS>MOLECULE
ZINC04286909
   31    32     0     0     0
SMALL
USER_CHARGES
2-[(6-nitro-1,1-dioxo-2,3-dihydrobenzothiophen-3-yl)sulfanyl]acetohydrazide
@<TRIPOS>ATOM
      1 C1          1.1343    3.1648    0.0066 C.ar      1 <0>        -0.0021
      2 C2         -0.0704    3.8296    0.0118 C.ar      1 <0>        -0.1212
      3 C3         -1.2819    3.1305    0.0136 C.ar      1 <0>         0.0094
      4 C4         -1.2131    1.7465    0.0173 C.ar      1 <0>        -0.6220
      5 C5         -0.0126    1.0758    0.0080 C.ar      1 <0>         0.0769
      6 C6          1.1767    1.7833    0.0004 C.ar      1 <0>        -0.0566
      7 N1          2.4743    1.0714   -0.0136 N.pl3     1 <0>         0.0270
      8 O1          2.5009   -0.1463   -0.0185 O.2       1 <0>        -0.1434
      9 O2          3.5156    1.7033   -0.0201 O.3       1 <0>        -0.1475
     10 S1         -2.8904    1.1543    0.0739 S.o2      1 <0>         2.4651
     11 O3         -2.9457    0.2384    1.1589 O.2       1 <0>        -0.9107
     12 O4         -3.2019    0.7520   -1.2529 O.2       1 <0>        -0.8917
     13 C7         -3.7315    2.7352    0.4999 C.3       1 <0>        -0.5468
     14 C8         -2.6651    3.7341   -0.0034 C.3       1 <0>        -0.0735
     15 H1         -2.6756    4.6172    0.6354 H         1 <0>         0.1433
     16 S2         -3.0732    4.2305   -1.6997 S.3       1 <0>        -0.1009
     17 C9         -1.9118    5.5781   -2.0541 C.3       1 <0>        -0.1434
     18 C10        -2.1464    6.0888   -3.4523 C.2       1 <0>         0.5311
     19 O5         -3.0119    5.5926   -4.1419 O.2       1 <0>        -0.4993
     20 N2         -1.3944    7.0971   -3.9366 N.am      1 <0>        -0.5724
     21 N3         -1.6071    7.5600   -5.2040 N.3       1 <0>        -0.6007
     22 H2          2.0558    3.7280    0.0076 H         1 <0>         0.1669
     23 H3         -0.0808    4.9095    0.0143 H         1 <0>         0.1526
     24 H4          0.0021   -0.0041    0.0020 H         1 <0>         0.1681
     25 H5         -3.8859    2.8264    1.5750 H         1 <0>         0.1687
     26 H6         -4.6693    2.8468   -0.0442 H         1 <0>         0.1687
     27 H7         -2.0661    6.3878   -1.3408 H         1 <0>         0.1208
     28 H8         -0.8898    5.2087   -1.9689 H         1 <0>         0.1176
     29 H9         -0.7021    7.4939   -3.3850 H         1 <0>         0.4027
     30 H10        -2.5660    7.8486   -5.3274 H         1 <0>         0.3509
     31 H11        -0.9718    8.3119   -5.4257 H         1 <0>         0.3624
@<TRIPOS>BOND
     1    1    6 ar
     2    1    2 ar
     3    1   22 1
     4    2    3 ar
     5    2   23 1
     6    3   14 1
     7    3    4 ar
     8    4    5 ar
     9    4   10 1
    10    5    6 ar
    11    5   24 1
    12    6    7 1
    13    7    8 2
    14    7    9 1
    15   10   11 2
    16   10   12 2
    17   10   13 1
    18   13   14 1
    19   13   25 1
    20   13   26 1
    21   14   15 1
    22   14   16 1
    23   16   17 1
    24   17   18 1
    25   17   27 1
    26   17   28 1
    27   18   19 2
    28   18   20 am
    29   20   21 1
    30   20   29 1
    31   21   30 1
    32   21   31 1
@<TRIPOS>MOLECULE
ZINC40397239
   34    35     0     0     0
SMALL
USER_CHARGES

@<TRIPOS>ATOM
      1 C1         -0.0716    1.4252   -0.0440 C.3       1 <0>         0.0197
      2 O1          0.0611    0.0035    0.0133 O.3       1 <0>        -0.2991
      3 C2          0.6504   -0.6049   -1.0507 C.ar      1 <0>         0.1524
      4 C3          1.0963    0.1517   -2.1240 C.ar      1 <0>        -0.2044
      5 C4          1.6949   -0.4657   -3.2060 C.ar      1 <0>        -0.0138
      6 C5          1.8516   -1.8392   -3.2232 C.ar      1 <0>        -0.1850
      7 C6          1.4085   -2.6028   -2.1542 C.ar      1 <0>         0.1342
      8 C7          0.8116   -1.9851   -1.0614 C.ar      1 <0>         0.0408
      9 O2          0.3804   -2.7306   -0.0076 O.3       1 <0>        -0.3157
     10 C8         -0.9630   -3.2146   -0.0620 C.3       1 <0>         0.0367
     11 O3          1.5624   -3.9540   -2.1725 O.3       1 <0>        -0.3418
     12 C9          2.7178   -4.4842   -1.5199 C.3       1 <0>         0.0305
     13 C10         2.5045   -2.5073   -4.4058 C.3       1 <0>         0.2247
     14 H1          3.2072   -3.2627   -4.0541 H         1 <0>         0.1469
     15 C11         3.2418   -1.4764   -5.2212 C.2       1 <0>        -0.0109
     16 N1          2.7128   -0.6405   -6.1029 N.2       1 <0>        -0.3772
     17 N2          3.6705    0.0770   -6.5829 N.2       1 <0>        -0.1576
     18 N3          4.7785   -0.2804   -6.0330 N.2       1 <0>        -0.1605
     19 N4          4.5429   -1.2275   -5.1905 N.2       1 <0>        -0.3405
     20 N5          1.4754   -3.1452   -5.2376 N.4       1 <0>        -0.6246
     21 H2          0.9156    1.8790   -0.1312 H         1 <0>         0.0628
     22 H3         -0.6751    1.6992   -0.9094 H         1 <0>         0.0616
     23 H4         -0.5565    1.7818    0.8647 H         1 <0>         0.1085
     24 H5          0.9754    1.2249   -2.1145 H         1 <0>         0.1451
     25 H6          2.0408    0.1263   -4.0404 H         1 <0>         0.1516
     26 H7         -1.6508   -2.3713   -0.1251 H         1 <0>         0.0473
     27 H8         -1.0853   -3.8496   -0.9395 H         1 <0>         0.0479
     28 H9         -1.1778   -3.7921    0.8371 H         1 <0>         0.0968
     29 H10         2.6554   -4.2830   -0.4504 H         1 <0>         0.0626
     30 H11         2.7663   -5.5606   -1.6848 H         1 <0>         0.1033
     31 H12         3.6129   -4.0137   -1.9266 H         1 <0>         0.0553
     32 H13         1.9126   -3.5925   -6.0294 H         1 <0>         0.4344
     33 H14         0.9818   -3.8353   -4.6916 H         1 <0>         0.4311
     34 H15         0.8250   -2.4459   -5.5632 H         1 <0>         0.4368
@<TRIPOS>BOND
     1    1    2 1
     2    1   21 1
     3    1   22 1
     4    1   23 1
     5    2    3 1
     6    3    8 ar
     7    3    4 ar
     8    4    5 ar
     9    4   24 1
    10    5    6 ar
    11    5   25 1
    12    6    7 ar
    13    6   13 1
    14    7    8 ar
    15    7   11 1
    16    8    9 1
    17    9   10 1
    18   10   26 1
    19   10   27 1
    20   10   28 1
    21   11   12 1
    22   12   29 1
    23   12   30 1
    24   12   31 1
    25   13   14 1
    26   13   15 1
    27   13   20 1
    28   15   19 2
    29   15   16 1
    30   16   17 1
    31   17   18 2
    32   18   19 1
    33   20   32 1
    34   20   33 1
    35   20   34 1
@<TRIPOS>MOLECULE
ZINC49947228
   28    29     0     0     0
SMALL
USER_CHARGES

@<TRIPOS>ATOM
      1 C1         -0.0167    1.3779    0.0096 C.ar      1 <0>        -0.1164
      2 C2          1.1711    2.0854    0.0021 C.ar      1 <0>        -0.0455
      3 C3          2.3773    1.4107   -0.0130 C.ar      1 <0>        -0.1136
      4 C4          2.3961    0.0283   -0.0201 C.ar      1 <0>        -0.0337
      5 C5          1.2086   -0.6790   -0.0117 C.ar      1 <0>        -0.0502
      6 C6          0.0021   -0.0041    0.0020 C.ar      1 <0>        -0.0439
      7 N1          1.2287   -2.1590   -0.0202 N.pl3     1 <0>         0.0308
      8 O1          2.2838   -2.7492   -0.0346 O.2       1 <0>        -0.1536
      9 O2          0.1900   -2.7777   -0.0128 O.3       1 <0>        -0.1529
     10 C7          3.6720    2.1819   -0.0222 C.3       1 <0>         0.1725
     11 N2          4.1052    2.4254    1.3559 N.pl3     1 <0>        -0.6821
     12 C8          5.2861    3.1261    1.6024 C.2       1 <0>         0.3239
     13 C9          5.7356    3.3720    2.9826 C.2       1 <0>         0.5345
     14 O3          5.0820    2.9668    3.9256 O.2       1 <0>        -0.4777
     15 N3          6.8825    4.0526    3.1875 N.am      1 <0>        -0.6498
     16 H1          7.1906    4.2218    4.0915 H         1 <0>         0.4394
     17 C10         7.5997    4.4964    2.1385 C.2       1 <0>         0.6769
     18 O4          8.6321    5.1084    2.3364 O.2       1 <0>        -0.5381
     19 N4          7.1948    4.2747    0.8757 N.am      1 <0>        -0.5265
     20 H2          7.7302    4.6046    0.1372 H         1 <0>         0.4574
     21 N5          6.0143    3.5703    0.6112 N.2       1 <0>        -0.2726
     22 H3         -0.9591    1.9051    0.0259 H         1 <0>         0.1527
     23 H4          1.1565    3.1653    0.0076 H         1 <0>         0.1479
     24 H5          3.3385   -0.4989   -0.0326 H         1 <0>         0.1570
     25 H6         -0.9258   -0.5567    0.0082 H         1 <0>         0.1569
     26 H7          4.4344    1.6056   -0.5463 H         1 <0>         0.0901
     27 H8          3.5237    3.1349   -0.5302 H         1 <0>         0.0923
     28 H9          3.5710    2.0994    2.0970 H         1 <0>         0.4243
@<TRIPOS>BOND
     1    1    6 ar
     2    1    2 ar
     3    1   22 1
     4    2    3 ar
     5    2   23 1
     6    3    4 ar
     7    3   10 1
     8    4    5 ar
     9    4   24 1
    10    5    6 ar
    11    5    7 1
    12    6   25 1
    13    7    8 2
    14    7    9 1
    15   10   11 1
    16   10   26 1
    17   10   27 1
    18   11   12 1
    19   11   28 1
    20   12   21 2
    21   12   13 1
    22   13   14 2
    23   13   15 am
    24   15   16 1
    25   15   17 am
    26   17   18 2
    27   17   19 am
    28   19   20 1
    29   19   21 1
@<TRIPOS>MOLECULE
ZINC15479658
   44    46     0     0     0
SMALL
USER_CHARGES

@<TRIPOS>ATOM
      1 C1         -0.0187    1.5258    0.0104 C.3       1 <0>        -0.1262
      2 C2          1.4158    2.0577   -0.0004 C.3       1 <0>        -0.1172
      3 C3          2.1290    1.5728   -1.2653 C.3       1 <0>        -0.1170
      4 C4          2.1338    0.0483   -1.2947 C.3       1 <0>         0.1386
      5 C5          0.7101   -0.4965   -1.2628 C.3       1 <0>        -0.1154
      6 C6          0.0021   -0.0041    0.0020 C.3       1 <0>        -0.1174
      7 C7          2.8639   -0.4537   -2.5191 C.2       1 <0>         0.5337
      8 O1          2.5732   -0.2561   -3.6794 O.2       1 <0>        -0.4470
      9 N1          3.9070   -1.1685   -2.0487 N.am      1 <0>        -0.3772
     10 C8          3.9310   -1.1833   -0.7104 C.2       1 <0>         0.7073
     11 O2          4.7757   -1.7623   -0.0559 O.2       1 <0>        -0.5239
     12 N2          2.9137   -0.4851   -0.1706 N.am      1 <0>        -0.7073
     13 N3          4.8480   -1.8155   -2.8603 N.am      1 <0>        -0.5074
     14 C9          6.0829   -1.2958   -3.0062 C.2       1 <0>         0.5192
     15 O3          6.3796   -0.2679   -2.4349 O.2       1 <0>        -0.4893
     16 C10         7.0950   -1.9918   -3.8792 C.3       1 <0>         0.0482
     17 N4          8.3522   -1.2320   -3.8728 N.3       1 <0>        -0.5162
     18 C11         9.2925   -1.7594   -4.8748 C.3       1 <0>         0.0334
     19 C12        10.4401   -0.7621   -5.0445 C.3       1 <0>         0.1160
     20 N5         10.9860   -0.4006   -3.7394 N.am      1 <0>        -0.7215
     21 C13        10.3245   -0.5993   -2.5945 C.2       1 <0>         0.5288
     22 O4         10.8391   -0.2410   -1.5564 O.2       1 <0>        -0.5468
     23 C14         8.9702   -1.2480   -2.5402 C.3       1 <0>         0.0301
     24 H1         -0.5294    1.8770    0.9071 H         1 <0>         0.0711
     25 H2         -0.5464    1.8865   -0.8725 H         1 <0>         0.0698
     26 H3          1.3994    3.1475    0.0125 H         1 <0>         0.0777
     27 H4          1.9459    1.6916    0.8788 H         1 <0>         0.0661
     28 H5          1.6072    1.9514   -2.1442 H         1 <0>         0.0927
     29 H6          3.1555    1.9393   -1.2666 H         1 <0>         0.0789
     30 H7          0.1679   -0.1477   -2.1417 H         1 <0>         0.0934
     31 H8          0.7382   -1.5862   -1.2625 H         1 <0>         0.0769
     32 H9          0.5356   -0.3652    0.8812 H         1 <0>         0.0661
     33 H10        -1.0204   -0.3815    0.0166 H         1 <0>         0.0775
     34 H11         2.7323   -0.3592    0.7740 H         1 <0>         0.4441
     35 H12         4.6106   -2.6376   -3.3172 H         1 <0>         0.4271
     36 H13         7.2756   -2.9962   -3.4963 H         1 <0>         0.0821
     37 H14         6.7137   -2.0547   -4.8984 H         1 <0>         0.1232
     38 H15         9.6877   -2.7173   -4.5367 H         1 <0>         0.0531
     39 H16         8.7775   -1.8895   -5.8266 H         1 <0>         0.1030
     40 H17        11.2244   -1.2133   -5.6522 H         1 <0>         0.0859
     41 H18        10.0697    0.1340   -5.5424 H         1 <0>         0.0774
     42 H19        11.8680    0.0012   -3.7013 H         1 <0>         0.4028
     43 H20         8.3360   -0.7035   -1.8407 H         1 <0>         0.1323
     44 H21         9.0762   -2.2791   -2.2029 H         1 <0>         0.0735
@<TRIPOS>BOND
     1    1    6 1
     2    1    2 1
     3    1   24 1
     4    1   25 1
     5    2    3 1
     6    2   26 1
     7    2   27 1
     8    3    4 1
     9    3   28 1
    10    3   29 1
    11    4   12 1
    12    4    5 1
    13    4    7 1
    14    5    6 1
    15    5   30 1
    16    5   31 1
    17    6   32 1
    18    6   33 1
    19    7    8 2
    20    7    9 am
    21    9   10 am
    22    9   13 1
    23   10   11 2
    24   10   12 am
    25   12   34 1
    26   13   14 am
    27   13   35 1
    28   14   15 2
    29   14   16 1
    30   16   17 1
    31   16   36 1
    32   16   37 1
    33   17   23 1
    34   17   18 1
    35   18   19 1
    36   18   38 1
    37   18   39 1
    38   19   20 1
    39   19   40 1
    40   19   41 1
    41   20   21 am
    42   20   42 1
    43   21   22 2
    44   21   23 1
    45   23   43 1
    46   23   44 1
@<TRIPOS>MOLECULE
ZINC65192293
   43    45     0     0     0
SMALL
USER_CHARGES

@<TRIPOS>ATOM
      1 C1         -0.0162    1.3409    0.0094 C.2       1 <0>        -0.2183
      2 C2          1.3313    1.7689   -0.0012 C.2       1 <0>        -0.1888
      3 C3          2.0923    0.6599   -0.0144 C.2       1 <0>        -0.0443
      4 O1          1.2819   -0.4111   -0.0124 O.3       1 <0>        -0.1669
      5 C4          0.0021   -0.0041    0.0020 C.2       1 <0>        -0.0309
      6 C5          3.5989    0.6249   -0.0294 C.3       1 <0>         0.2083
      7 N1          4.1006    0.6065    1.3469 N.am      1 <0>        -0.6166
      8 C6          4.4070    1.8075    2.1328 C.3       1 <0>         0.1165
      9 C7          5.2898    1.3202    3.3030 C.3       1 <0>        -0.1139
     10 C8          4.8584   -0.1594    3.4286 C.3       1 <0>        -0.1475
     11 C9          4.3342   -0.5125    2.0541 C.2       1 <0>         0.5216
     12 O2          4.1535   -1.6411    1.6483 O.2       1 <0>        -0.5122
     13 C10         4.9795    2.0815    4.5661 C.2       1 <0>         0.5288
     14 O3          4.1289    2.9460    4.5595 O.2       1 <0>        -0.5179
     15 N2          5.6472    1.8016    5.7029 N.am      1 <0>        -0.5259
     16 N3          5.3587    2.5094    6.8770 N.am      1 <0>        -0.5317
     17 C11         6.0264    2.2295    8.0138 C.2       1 <0>         0.7135
     18 O4          5.7760    2.8437    9.0329 O.2       1 <0>        -0.5653
     19 N4          6.9716    1.2688    8.0211 N.am      1 <0>        -0.7402
     20 C12         7.6974    0.9646    9.2568 C.3       1 <0>         0.1665
     21 C13         8.7056   -0.1557    8.9934 C.3       1 <0>        -0.1760
     22 C14         8.5049   -1.4764    9.7393 C.3       1 <0>        -0.1758
     23 C15         9.6485   -0.5403   10.1353 C.3       1 <0>        -0.1670
     24 H1         -0.8920    1.9726    0.0252 H         1 <0>         0.1499
     25 H2          1.6822    2.7903    0.0004 H         1 <0>         0.1491
     26 H3         -0.8653   -0.6475    0.0072 H         1 <0>         0.2035
     27 H4          3.9364   -0.2706   -0.5512 H         1 <0>         0.1034
     28 H5          3.9777    1.5089   -0.5424 H         1 <0>         0.1160
     29 H6          4.9525    2.5281    1.5234 H         1 <0>         0.0940
     30 H7          3.4882    2.2535    2.5137 H         1 <0>         0.0960
     31 H8          6.3477    1.3981    3.0523 H         1 <0>         0.1295
     32 H9          5.7126   -0.7853    3.6866 H         1 <0>         0.1171
     33 H10         4.0686   -0.2646    4.1725 H         1 <0>         0.1121
     34 H11         6.3275    1.1102    5.7081 H         1 <0>         0.4210
     35 H12         4.6784    3.2008    6.8718 H         1 <0>         0.4451
     36 H13         7.1713    0.7788    7.2081 H         1 <0>         0.3916
     37 H14         8.2249    1.8556    9.5970 H         1 <0>         0.0760
     38 H15         6.9915    0.6453   10.0235 H         1 <0>         0.0735
     39 H16         9.0984   -0.2055    7.9779 H         1 <0>         0.1105
     40 H17         7.6546   -1.5472   10.4176 H         1 <0>         0.0984
     41 H18         8.7657   -2.3955    9.2145 H         1 <0>         0.0977
     42 H19        10.6616   -0.8435    9.8710 H         1 <0>         0.1000
     43 H20         9.5506    0.0048   11.0742 H         1 <0>         0.0997
@<TRIPOS>BOND
     1    1    5 2
     2    1    2 1
     3    1   24 1
     4    2    3 2
     5    2   25 1
     6    3    4 1
     7    3    6 1
     8    4    5 1
     9    5   26 1
    10    6    7 1
    11    6   27 1
    12    6   28 1
    13    7   11 am
    14    7    8 1
    15    8    9 1
    16    8   29 1
    17    8   30 1
    18    9   10 1
    19    9   13 1
    20    9   31 1
    21   10   11 1
    22   10   32 1
    23   10   33 1
    24   11   12 2
    25   13   14 2
    26   13   15 am
    27   15   16 1
    28   15   34 1
    29   16   17 am
    30   16   35 1
    31   17   18 2
    32   17   19 am
    33   19   20 1
    34   19   36 1
    35   20   21 1
    36   20   37 1
    37   20   38 1
    38   21   23 1
    39   21   22 1
    40   21   39 1
    41   22   23 1
    42   22   40 1
    43   22   41 1
    44   23   42 1
    45   23   43 1
@<TRIPOS>MOLECULE
ZINC20589528
   48    50     0     0     0
SMALL
USER_CHARGES
N-(3-carbamoyl-4,5,6,7-tetrahydrobenzothiophen-2-yl)-4-(2-hydroxyethyl)piperazine-1-carboxamide
@<TRIPOS>ATOM
      1 C1          7.0609    1.3855    1.5401 C.3       1 <0>        -0.1208
      2 C2          6.9865    0.0911    0.7252 C.3       1 <0>        -0.1152
      3 C3          5.6202   -0.5673    0.9662 C.3       1 <0>        -0.0361
      4 C4          4.5592    0.4786    0.8145 C.2       1 <0>        -0.2142
      5 C5          4.7322    1.8178    0.7971 C.2       1 <0>        -0.0624
      6 C6          3.5170    2.5967    0.6274 C.2       1 <0>        -0.2395
      7 C7          2.3209    1.9023    0.5140 C.2       1 <0>         0.1041
      8 S1          2.8153    0.2450    0.6182 S.3       1 <0>         0.2244
      9 N1          1.0414    2.4110    0.3507 N.am      1 <0>        -0.6470
     10 C8         -0.0096    1.5730    0.2526 C.2       1 <0>         0.7060
     11 O1          0.1725    0.3716    0.2138 O.2       1 <0>        -0.5541
     12 N2         -1.2620    2.0671    0.1919 N.am      1 <0>        -0.6194
     13 C9         -2.4277    1.1702    0.1818 C.3       1 <0>         0.1324
     14 C10        -3.4057    1.6386    1.2710 C.3       1 <0>         0.0397
     15 N3         -3.7146    3.0600    1.0661 N.3       1 <0>        -0.5253
     16 C11        -2.5135    3.8930    1.2133 C.3       1 <0>         0.0371
     17 C12        -1.4992    3.5172    0.1279 C.3       1 <0>         0.1160
     18 C13        -4.7782    3.5043    1.9768 C.3       1 <0>         0.0522
     19 C14        -5.4146    4.7844    1.4317 C.3       1 <0>         0.0920
     20 O2         -6.0521    4.5053    0.1835 O.3       1 <0>        -0.5877
     21 C15         3.5529    4.0615    0.5823 C.2       1 <0>         0.5867
     22 O3          3.4486    4.7047    1.6103 O.2       1 <0>        -0.5461
     23 N4          3.7014    4.6959   -0.5975 N.am      1 <0>        -0.8712
     24 C16         6.1192    2.4319    0.9414 C.3       1 <0>        -0.0606
     25 H1          8.0924    1.7672    1.5217 H         1 <0>         0.0695
     26 H2          6.7653    1.1778    2.5791 H         1 <0>         0.0670
     27 H3          7.1051    0.3233   -0.3434 H         1 <0>         0.0677
     28 H4          7.7897   -0.5895    1.0439 H         1 <0>         0.0732
     29 H5          5.4653   -1.3704    0.2306 H         1 <0>         0.0807
     30 H6          5.5906   -0.9894    1.9816 H         1 <0>         0.0815
     31 H7          0.8841    3.4986    0.3012 H         1 <0>         0.4350
     32 H8         -2.9133    1.2111   -0.8044 H         1 <0>         0.0816
     33 H9         -2.0998    0.1404    0.3865 H         1 <0>         0.1024
     34 H10        -4.3316    1.0478    1.2110 H         1 <0>         0.0944
     35 H11        -2.9460    1.5003    2.2607 H         1 <0>         0.0400
     36 H12        -2.7876    4.9532    1.1094 H         1 <0>         0.0917
     37 H13        -2.0698    3.7245    2.2056 H         1 <0>         0.0413
     38 H14        -0.5527    4.0514    0.2977 H         1 <0>         0.0753
     39 H15        -1.8960    3.7805   -0.8637 H         1 <0>         0.0884
     40 H16        -5.5444    2.7191    2.0565 H         1 <0>         0.0848
     41 H17        -4.3509    3.7018    2.9710 H         1 <0>         0.0528
     42 H18        -6.1605    5.1573    2.1491 H         1 <0>         0.0450
     43 H19        -4.6356    5.5467    1.2832 H         1 <0>         0.0399
     44 H20        -6.5675    5.3091   -0.3627 H         1 <0>         0.4041
     45 H21         3.7283    5.7950   -0.6314 H         1 <0>         0.4211
     46 H22         3.7957    4.1145   -1.5265 H         1 <0>         0.4223
     47 H23         6.0725    3.3066    1.6068 H         1 <0>         0.0739
     48 H24         6.4946    2.7414   -0.0452 H         1 <0>         0.0755
@<TRIPOS>BOND
     1    1   24 1
     2    1    2 1
     3    1   25 1
     4    1   26 1
     5    2    3 1
     6    2   27 1
     7    2   28 1
     8    3    4 1
     9    3   29 1
    10    3   30 1
    11    4    8 1
    12    4    5 2
    13    5    6 1
    14    5   24 1
    15    6    7 2
    16    6   21 1
    17    7    8 1
    18    7    9 1
    19    9   10 am
    20    9   31 1
    21   10   11 2
    22   10   12 am
    23   12   17 1
    24   12   13 1
    25   13   14 1
    26   13   32 1
    27   13   33 1
    28   14   15 1
    29   14   34 1
    30   14   35 1
    31   15   16 1
    32   15   18 1
    33   16   17 1
    34   16   36 1
    35   16   37 1
    36   17   38 1
    37   17   39 1
    38   18   19 1
    39   18   40 1
    40   18   41 1
    41   19   20 1
    42   19   42 1
    43   19   43 1
    44   20   44 1
    45   21   22 2
    46   21   23 am
    47   23   45 1
    48   23   46 1
    49   24   47 1
    50   24   48 1
@<TRIPOS>MOLECULE
ZINC37926685
   39    40     0     0     0
SMALL
USER_CHARGES

@<TRIPOS>ATOM
      1 C1         -0.0184    1.5028    0.0103 C.3       1 <0>        -0.1291
      2 C2          0.0021   -0.0041    0.0020 C.2       1 <0>         0.2653
      3 C3         -1.1286   -0.7158    0.0039 C.2       1 <0>        -0.8188
      4 S1         -0.5085   -2.3876   -0.0083 S.3       1 <0>         0.1322
      5 C4          1.1381   -2.0479   -0.0148 C.2       1 <0>         0.4602
      6 O1          2.0718   -2.8304   -0.0240 O.2       1 <0>        -0.4482
      7 N1          1.1756   -0.6990   -0.0134 N.am      1 <0>        -0.6537
      8 H1          2.0248   -0.2304   -0.0197 H         1 <0>         0.4177
      9 S2         -2.7972   -0.1500    0.0162 S.o2      1 <0>         2.7336
     10 O2         -3.4920   -0.9551    0.9588 O.2       1 <0>        -0.9384
     11 O3         -2.7450    1.2665    0.1160 O.2       1 <0>        -0.9440
     12 N2         -3.4427   -0.4964   -1.4690 N.pl3     1 <0>        -0.9918
     13 C5         -3.3499    0.4721   -2.5699 C.3       1 <0>         0.1151
     14 C6         -4.7555    0.7248   -3.1241 C.3       1 <0>        -0.1317
     15 C7         -5.3934   -0.6106   -3.5139 C.3       1 <0>        -0.1150
     16 C8         -5.5155   -1.5005   -2.2748 C.3       1 <0>        -0.1115
     17 H2         -6.1180   -0.9938   -1.5209 H         1 <0>         0.0872
     18 C9         -4.1136   -1.7807   -1.7126 C.3       1 <0>         0.1213
     19 C10        -6.1840   -2.8220   -2.6591 C.3       1 <0>         0.1411
     20 N3         -7.5608   -2.5659   -3.0891 N.am      1 <0>        -0.7442
     21 C11        -8.3472   -3.5896   -3.4767 C.2       1 <0>         0.7046
     22 O4         -7.9139   -4.7256   -3.4695 O.2       1 <0>        -0.5924
     23 N4         -9.6139   -3.3539   -3.8724 N.am      1 <0>        -0.8683
     24 H3          1.0042    1.8801    0.0026 H         1 <0>         0.0854
     25 H4         -0.5455    1.8639   -0.8728 H         1 <0>         0.1126
     26 H5         -0.5286    1.8543    0.9071 H         1 <0>         0.1166
     27 H6         -2.9296    1.4072   -2.1995 H         1 <0>         0.0956
     28 H7         -2.7132    0.0698   -3.3579 H         1 <0>         0.0729
     29 H8         -5.3651    1.2105   -2.3622 H         1 <0>         0.0715
     30 H9         -4.6902    1.3669   -4.0025 H         1 <0>         0.0799
     31 H10        -6.3842   -0.4316   -3.9315 H         1 <0>         0.0674
     32 H11        -4.7704   -1.1073   -4.2577 H         1 <0>         0.0706
     33 H12        -3.5380   -2.3630   -2.4321 H         1 <0>         0.0807
     34 H13        -4.1974   -2.3325   -0.7763 H         1 <0>         0.1006
     35 H14        -5.6291   -3.2863   -3.4743 H         1 <0>         0.0722
     36 H15        -6.1907   -3.4898   -1.7976 H         1 <0>         0.0734
     37 H16        -7.9065   -1.6596   -3.0949 H         1 <0>         0.3967
     38 H17        -9.9595   -2.4476   -3.8781 H         1 <0>         0.3967
     39 H18       -10.1798   -4.0907   -4.1513 H         1 <0>         0.4160
@<TRIPOS>BOND
     1    1    2 1
     2    1   24 1
     3    1   25 1
     4    1   26 1
     5    2    7 1
     6    2    3 2
     7    3    4 1
     8    3    9 1
     9    4    5 1
    10    5    6 2
    11    5    7 am
    12    7    8 1
    13    9   10 2
    14    9   11 2
    15    9   12 1
    16   12   18 1
    17   12   13 1
    18   13   14 1
    19   13   27 1
    20   13   28 1
    21   14   15 1
    22   14   29 1
    23   14   30 1
    24   15   16 1
    25   15   31 1
    26   15   32 1
    27   16   17 1
    28   16   18 1
    29   16   19 1
    30   18   33 1
    31   18   34 1
    32   19   20 1
    33   19   35 1
    34   19   36 1
    35   20   21 am
    36   20   37 1
    37   21   22 2
    38   21   23 am
    39   23   38 1
    40   23   39 1
@<TRIPOS>MOLECULE
ZINC20757769
   46    49     0     0     0
SMALL
USER_CHARGES

@<TRIPOS>ATOM
      1 C1         -0.0187    1.5258    0.0104 C.3       1 <0>        -0.1626
      2 C2          0.0021   -0.0041    0.0020 C.3       1 <0>         0.1100
      3 N1          0.7106   -0.4894    1.1889 N.am      1 <0>        -0.5594
      4 C3          2.0426   -0.6887    1.1378 C.2       1 <0>         0.5736
      5 O1          2.6573   -0.4667    0.1090 O.2       1 <0>        -0.5734
      6 C4          2.7184   -1.1542    2.2798 C.2       1 <0>        -0.5428
      7 C5          2.0077   -1.3945    3.4181 C.2       1 <0>         0.5258
      8 N2          0.6529   -1.1781    3.4266 N.am      1 <0>        -0.6545
      9 H1          0.1430   -1.3473    4.2342 H         1 <0>         0.4271
     10 C6          0.0277   -0.7275    2.3235 C.2       1 <0>         0.7037
     11 O2         -1.1728   -0.5368    2.3512 O.2       1 <0>        -0.5507
     12 O3          2.6320   -1.8421    4.5281 O.3       1 <0>        -0.6462
     13 C7          4.2072   -1.3847    2.2457 C.3       1 <0>         0.2302
     14 H2          4.5582   -1.6570    3.2411 H         1 <0>         0.1532
     15 C8          4.5260   -2.4960    1.2742 C.2       1 <0>         0.0954
     16 C9          5.5622   -2.4389    0.4060 C.2       1 <0>        -0.1964
     17 C10         5.5511   -3.6668   -0.3562 C.ar      1 <0>        -0.0500
     18 C11         6.3679   -4.1577   -1.3802 C.ar      1 <0>        -0.1102
     19 C12         6.0497   -5.4081   -1.8887 C.ar      1 <0>         0.1031
     20 C13         4.9722   -6.1422   -1.4077 C.ar      1 <0>        -0.1801
     21 C14         4.1537   -5.6728   -0.3962 C.ar      1 <0>        -0.0842
     22 C15         4.4516   -4.4191    0.1328 C.ar      1 <0>         0.0724
     23 N3          3.8573   -3.6789    1.1180 N.pl3     1 <0>        -0.5524
     24 H3          3.0792   -3.9519    1.6288 H         1 <0>         0.4213
     25 O4          6.8128   -5.9301   -2.8860 O.3       1 <0>        -0.3208
     26 C16         6.4450   -7.2208   -3.3766 C.3       1 <0>         0.0270
     27 C17         6.5071   -1.2663    0.3238 C.3       1 <0>        -0.0578
     28 C18         6.3175   -0.4204    1.5908 C.3       1 <0>        -0.0049
     29 N4          4.8867   -0.1581    1.8009 N.4       1 <0>        -0.5011
     30 H4          1.0039    1.9031    0.0027 H         1 <0>         0.0576
     31 H5         -0.5459    1.8868   -0.8726 H         1 <0>         0.0735
     32 H6         -0.5289    1.8773    0.9072 H         1 <0>         0.0592
     33 H7         -1.0205   -0.3814    0.0098 H         1 <0>         0.0922
     34 H8          0.5123   -0.3556   -0.8948 H         1 <0>         0.0960
     35 H9          7.2060   -3.5902   -1.7569 H         1 <0>         0.1376
     36 H10         4.7669   -7.1113   -1.8381 H         1 <0>         0.1304
     37 H11         3.3191   -6.2536   -0.0321 H         1 <0>         0.1333
     38 H12         6.4905   -7.9451   -2.5633 H         1 <0>         0.0545
     39 H13         5.4304   -7.1832   -3.7733 H         1 <0>         0.0545
     40 H14         7.1335   -7.5187   -4.1674 H         1 <0>         0.0994
     41 H15         7.5353   -1.6240    0.2693 H         1 <0>         0.1096
     42 H16         6.2766   -0.6677   -0.5575 H         1 <0>         0.0926
     43 H17         6.7160   -0.9594    2.4503 H         1 <0>         0.1268
     44 H18         6.8467    0.5258    1.4783 H         1 <0>         0.1299
     45 H19         4.4757    0.1566    0.9349 H         1 <0>         0.4316
     46 H20         4.7750    0.5590    2.5019 H         1 <0>         0.4260
@<TRIPOS>BOND
     1    1    2 1
     2    1   30 1
     3    1   31 1
     4    1   32 1
     5    2   33 1
     6    2   34 1
     7    2    3 1
     8    3   10 am
     9    3    4 am
    10    4    5 2
    11    4    6 1
    12    6   13 1
    13    6    7 2
    14    7   12 1
    15    7    8 1
    16    8    9 1
    17    8   10 am
    18   10   11 2
    19   13   14 1
    20   13   29 1
    21   13   15 1
    22   15   23 1
    23   15   16 2
    24   16   17 1
    25   16   27 1
    26   17   22 ar
    27   17   18 ar
    28   18   19 ar
    29   18   35 1
    30   19   20 ar
    31   19   25 1
    32   20   21 ar
    33   20   36 1
    34   21   22 ar
    35   21   37 1
    36   22   23 1
    37   23   24 1
    38   25   26 1
    39   26   38 1
    40   26   39 1
    41   26   40 1
    42   27   28 1
    43   27   41 1
    44   27   42 1
    45   28   29 1
    46   28   43 1
    47   28   44 1
    48   29   45 1
    49   29   46 1
@<TRIPOS>MOLECULE
ZINC58332834
   43    44     0     0     0
SMALL
USER_CHARGES

@<TRIPOS>ATOM
      1 C1         -0.0187    1.5258    0.0104 C.3       1 <0>        -0.1684
      2 C2          0.0021   -0.0041    0.0020 C.3       1 <0>         0.1371
      3 H1          0.5293   -0.3651    0.8851 H         1 <0>         0.1130
      4 C3         -1.4117   -0.5257    0.0127 C.2       1 <0>         0.5143
      5 O1         -1.8074   -1.2231   -0.8966 O.2       1 <0>        -0.4556
      6 N1         -2.2363   -0.2169    1.0331 N.am      1 <0>        -0.6878
      7 C4         -3.5007   -0.6834    1.0427 C.2       1 <0>         0.6959
      8 O2         -3.8974   -1.3825    0.1311 O.2       1 <0>        -0.5302
      9 N2         -4.3252   -0.3745    2.0631 N.am      1 <0>        -0.8556
     10 N3          0.6878   -0.4765   -1.2033 N.pl3     1 <0>        -0.7318
     11 C5          2.0798   -0.5910   -1.2154 C.ar      1 <0>         0.2194
     12 C6          2.8078   -0.2618   -0.0824 C.ar      1 <0>        -0.2011
     13 C7          4.1840   -0.3738   -0.0959 C.ar      1 <0>        -0.0699
     14 C8          4.8259   -0.8072   -1.2386 C.ar      1 <0>        -0.1695
     15 C9          4.1013   -1.1357   -2.3766 C.ar      1 <0>        -0.0436
     16 C10         2.7287   -1.0417   -2.3663 C.ar      1 <0>        -0.1333
     17 C11         1.8745   -1.4145   -3.5491 C.3       1 <0>        -0.0915
     18 C12         2.6976   -1.4148   -4.8363 C.3       1 <0>         0.1247
     19 N4          3.9414   -2.1590   -4.5782 N.pl3     1 <0>        -1.0023
     20 C13         4.8697   -1.5875   -3.5932 C.3       1 <0>         0.1582
     21 S1          4.2800   -3.5721   -5.3725 S.o2      1 <0>         2.6122
     22 O3          5.1449   -4.2821   -4.4967 O.2       1 <0>        -0.9518
     23 O4          3.0099   -4.1035   -5.7243 O.2       1 <0>        -0.9501
     24 C14         5.1798   -3.0647   -6.8636 C.3       1 <0>        -0.6739
     25 H2          1.0039    1.9031    0.0027 H         1 <0>         0.0807
     26 H3         -0.5459    1.8868   -0.8726 H         1 <0>         0.0686
     27 H4         -0.5289    1.8773    0.9072 H         1 <0>         0.0703
     28 H5         -1.9197    0.3412    1.7606 H         1 <0>         0.4117
     29 H6         -4.0086    0.1835    2.7906 H         1 <0>         0.4006
     30 H7         -5.2352   -0.7103    2.0700 H         1 <0>         0.4221
     31 H8          0.1751   -0.7099   -1.9930 H         1 <0>         0.4104
     32 H9          2.3005    0.0813    0.8072 H         1 <0>         0.1213
     33 H10         4.7565   -0.1227    0.7848 H         1 <0>         0.1235
     34 H11         5.9026   -0.8912   -1.2477 H         1 <0>         0.1218
     35 H12         1.4569   -2.4088   -3.3905 H         1 <0>         0.0817
     36 H13         1.0606   -0.6957   -3.6443 H         1 <0>         0.0795
     37 H14         2.1354   -1.9013   -5.6333 H         1 <0>         0.0968
     38 H15         2.9338   -0.3901   -5.1231 H         1 <0>         0.0773
     39 H16         5.3967   -0.7370   -4.0257 H         1 <0>         0.0842
     40 H17         5.5913   -2.3513   -3.3035 H         1 <0>         0.1060
     41 H18         6.0886   -2.5355   -6.5771 H         1 <0>         0.1280
     42 H19         5.4418   -3.9469   -7.4477 H         1 <0>         0.1290
     43 H20         4.5496   -2.4068   -7.4621 H         1 <0>         0.1278
@<TRIPOS>BOND
     1    1    2 1
     2    1   25 1
     3    1   26 1
     4    1   27 1
     5    2    3 1
     6    2    4 1
     7    2   10 1
     8    4    5 2
     9    4    6 am
    10    6    7 am
    11    6   28 1
    12    7    8 2
    13    7    9 am
    14    9   29 1
    15    9   30 1
    16   10   11 1
    17   10   31 1
    18   11   16 ar
    19   11   12 ar
    20   12   13 ar
    21   12   32 1
    22   13   14 ar
    23   13   33 1
    24   14   15 ar
    25   14   34 1
    26   15   20 1
    27   15   16 ar
    28   16   17 1
    29   17   18 1
    30   17   35 1
    31   17   36 1
    32   18   19 1
    33   18   37 1
    34   18   38 1
    35   19   20 1
    36   19   21 1
    37   20   39 1
    38   20   40 1
    39   21   22 2
    40   21   23 2
    41   21   24 1
    42   24   41 1
    43   24   42 1
    44   24   43 1
@<TRIPOS>MOLECULE
ZINC67314420
   46    47     0     0     0
SMALL
USER_CHARGES

@<TRIPOS>ATOM
      1 C1         -0.3230    1.4867    0.3781 C.3       1 <0>        -0.1119
      2 C2         -0.1536    0.0037    0.1705 C.ar      1 <0>        -0.0329
      3 C3         -0.8618   -0.6393   -0.8245 C.ar      1 <0>        -0.1108
      4 C4         -0.7099   -1.9992   -1.0188 C.ar      1 <0>        -0.0853
      5 C5          0.1569   -2.7285   -0.2136 C.ar      1 <0>         0.1458
      6 C6          0.8730   -2.0922    0.7879 C.ar      1 <0>        -0.1091
      7 C7          0.7238   -0.7187    0.9808 C.ar      1 <0>        -0.1275
      8 C8          1.4883   -0.0314    2.0435 C.2       1 <0>         0.5636
      9 O1          1.4402    1.1792    2.1408 O.2       1 <0>        -0.5296
     10 N1          2.2386   -0.7474    2.9043 N.am      1 <0>        -0.8525
     11 N2          0.3064   -4.1058   -0.4140 N.am      1 <0>        -0.6840
     12 C9          0.2465   -4.6159   -1.6600 C.2       1 <0>         0.7100
     13 O2         -0.0257   -3.8942   -2.5999 O.2       1 <0>        -0.5693
     14 N3          0.4883   -5.9260   -1.8642 N.am      1 <0>        -0.6217
     15 C10         0.7165   -6.8308   -0.7294 C.3       1 <0>         0.1056
     16 C11        -0.2519   -8.0128   -0.8386 C.3       1 <0>        -0.1353
     17 C12        -0.0928   -8.6724   -2.2104 C.3       1 <0>        -0.1227
     18 C13        -0.4377   -7.6623   -3.3071 C.3       1 <0>         0.1312
     19 H1         -1.4595   -7.3092   -3.1682 H         1 <0>         0.0999
     20 C14         0.5226   -6.4776   -3.2256 C.3       1 <0>         0.1030
     21 N4         -0.3162   -8.3040   -4.6185 N.pl3     1 <0>        -1.1114
     22 S1         -1.3524   -7.8898   -5.8421 S.o2      1 <0>         2.6110
     23 O3         -0.9670   -8.7099   -6.9368 O.2       1 <0>        -0.9556
     24 O4         -2.6495   -8.0038   -5.2730 O.2       1 <0>        -0.9540
     25 C15        -0.9783   -6.1516   -6.2015 C.3       1 <0>        -0.6761
     26 H2          0.5629    2.0079    0.0151 H         1 <0>         0.0780
     27 H3         -1.1986    1.8328   -0.1711 H         1 <0>         0.0591
     28 H4         -0.4556    1.6921    1.4403 H         1 <0>         0.0843
     29 H5         -1.5371   -0.0779   -1.4531 H         1 <0>         0.1353
     30 H6         -1.2670   -2.4969   -1.7988 H         1 <0>         0.1472
     31 H7          1.5468   -2.6573    1.4149 H         1 <0>         0.1281
     32 H8          2.2770   -1.7135    2.8267 H         1 <0>         0.3990
     33 H9          2.7402   -0.2965    3.6015 H         1 <0>         0.4062
     34 H10         0.4532   -4.6930    0.3440 H         1 <0>         0.4070
     35 H11         1.7432   -7.1962   -0.7541 H         1 <0>         0.0791
     36 H12         0.5386   -6.2977    0.2046 H         1 <0>         0.0799
     37 H13        -0.0287   -8.7394   -0.0574 H         1 <0>         0.0879
     38 H14        -1.2755   -7.6563   -0.7229 H         1 <0>         0.0747
     39 H15         0.9372   -9.0065   -2.3353 H         1 <0>         0.0758
     40 H16        -0.7633   -9.5288   -2.2815 H         1 <0>         0.0817
     41 H17         0.2167   -5.7115   -3.9381 H         1 <0>         0.0998
     42 H18         1.5331   -6.8135   -3.4584 H         1 <0>         0.0806
     43 H19         0.3712   -8.9713   -4.7701 H         1 <0>         0.4211
     44 H20         0.0639   -6.0599   -6.5074 H         1 <0>         0.1312
     45 H21        -1.6251   -5.7994   -7.0051 H         1 <0>         0.1328
     46 H22        -1.1489   -5.5510   -5.3081 H         1 <0>         0.1308
@<TRIPOS>BOND
     1    1    2 1
     2    1   26 1
     3    1   27 1
     4    1   28 1
     5    2    7 ar
     6    2    3 ar
     7    3    4 ar
     8    3   29 1
     9    4    5 ar
    10    4   30 1
    11    5    6 ar
    12    5   11 1
    13    6    7 ar
    14    6   31 1
    15    7    8 1
    16    8    9 2
    17    8   10 am
    18   10   32 1
    19   10   33 1
    20   11   12 am
    21   11   34 1
    22   12   13 2
    23   12   14 am
    24   14   20 1
    25   14   15 1
    26   15   16 1
    27   15   35 1
    28   15   36 1
    29   16   17 1
    30   16   37 1
    31   16   38 1
    32   17   18 1
    33   17   39 1
    34   17   40 1
    35   18   19 1
    36   18   20 1
    37   18   21 1
    38   20   41 1
    39   20   42 1
    40   21   22 1
    41   21   43 1
    42   22   23 2
    43   22   24 2
    44   22   25 1
    45   25   44 1
    46   25   45 1
    47   25   46 1
@<TRIPOS>MOLECULE
ZINC13366536
   43    45     0     0     0
SMALL
USER_CHARGES
(Z)-3-[(6R,6aS)-4-hydroxy-6-methoxy-3-methyl-11-oxo-5,6,6a,7-tetrahydropyrrolo[5,1-c][1,4]benzodiazepin-8-yl]prop-2-enamide
@<TRIPOS>ATOM
      1 C1         -1.4020    4.6854   -0.4178 C.3       1 <0>        -0.1191
      2 C2         -2.0363    4.6962    0.9492 C.ar      1 <0>        -0.0831
      3 C3         -1.2449    4.9410    2.0608 C.ar      1 <0>        -0.1100
      4 C4         -1.8169    4.9640    3.3217 C.ar      1 <0>        -0.0590
      5 C5         -3.1791    4.7285    3.4233 C.ar      1 <0>        -0.1614
      6 C6         -3.9826    4.4674    2.3418 C.ar      1 <0>         0.1244
      7 C7         -3.3956    4.4673    1.0650 C.ar      1 <0>         0.1141
      8 O1         -4.1530    4.2399   -0.0416 O.3       1 <0>        -0.4740
      9 N1         -5.3110    4.1965    2.4956 N.pl3     1 <0>        -0.6706
     10 C8         -5.5891    2.7671    2.8166 C.3       1 <0>         0.2582
     11 H1         -5.3611    2.1233    1.9671 H         1 <0>         0.1025
     12 C9         -4.5684    2.5070    4.0259 C.3       1 <0>         0.0835
     13 H2         -3.5423    2.2965    3.7243 H         1 <0>         0.1324
     14 C10        -5.2502    1.3762    4.8349 C.3       1 <0>        -0.0664
     15 C11        -5.9589    2.1030    5.9565 C.2       1 <0>        -0.1919
     16 C12        -5.6154    3.4043    5.9092 C.2       1 <0>         0.1643
     17 N2         -4.7182    3.6770    4.9471 N.am      1 <0>        -0.5475
     18 C13        -3.9084    4.7617    4.7359 C.2       1 <0>         0.5646
     19 O2         -3.7912    5.6686    5.5374 O.2       1 <0>        -0.4858
     20 C14        -6.8323    1.5163    6.8944 C.2       1 <0>         0.0421
     21 C15        -6.5731    1.6238    8.2241 C.2       1 <0>        -0.2445
     22 C16        -5.3475    2.1723    8.6627 C.2       1 <0>         0.5466
     23 O3         -4.4686    2.4214    7.8569 O.2       1 <0>        -0.5384
     24 N3         -5.1505    2.4200    9.9728 N.am      1 <0>        -0.8588
     25 O4         -6.9422    2.5907    3.2409 O.3       1 <0>        -0.3570
     26 C17        -7.8771    2.4710    2.1668 C.3       1 <0>         0.0294
     27 H3         -1.0673    3.6755   -0.6550 H         1 <0>         0.0741
     28 H4         -0.5481    5.3628   -0.4275 H         1 <0>         0.0721
     29 H5         -2.1318    5.0099   -1.1595 H         1 <0>         0.0774
     30 H6         -0.1851    5.1128    1.9438 H         1 <0>         0.1388
     31 H7         -1.2195    5.1599    4.1998 H         1 <0>         0.1397
     32 H8         -4.2197    3.3071   -0.2876 H         1 <0>         0.3847
     33 H9         -5.7279    4.8087    3.1808 H         1 <0>         0.3626
     34 H10        -4.5041    0.6900    5.2358 H         1 <0>         0.0754
     35 H11        -5.9678    0.8409    4.2131 H         1 <0>         0.0929
     36 H12        -6.0196    4.1517    6.5760 H         1 <0>         0.1430
     37 H13        -7.7074    0.9814    6.5563 H         1 <0>         0.1296
     38 H14        -7.3042    1.2898    8.9455 H         1 <0>         0.1284
     39 H15        -5.8504    2.2217   10.6145 H         1 <0>         0.3988
     40 H16        -4.3089    2.7967   10.2740 H         1 <0>         0.3995
     41 H17        -7.8466    3.3734    1.5562 H         1 <0>         0.0535
     42 H18        -7.6174    1.6082    1.5534 H         1 <0>         0.0449
     43 H19        -8.8807    2.3400    2.5716 H         1 <0>         0.0900
@<TRIPOS>BOND
     1    1    2 1
     2    1   27 1
     3    1   28 1
     4    1   29 1
     5    2    7 ar
     6    2    3 ar
     7    3    4 ar
     8    3   30 1
     9    4    5 ar
    10    4   31 1
    11    5   18 1
    12    5    6 ar
    13    6    7 ar
    14    6    9 1
    15    7    8 1
    16    8   32 1
    17    9   10 1
    18    9   33 1
    19   10   11 1
    20   10   12 1
    21   10   25 1
    22   12   13 1
    23   12   17 1
    24   12   14 1
    25   14   15 1
    26   14   34 1
    27   14   35 1
    28   15   16 2
    29   15   20 1
    30   16   17 1
    31   16   36 1
    32   17   18 am
    33   18   19 2
    34   20   21 2
    35   20   37 1
    36   21   22 1
    37   21   38 1
    38   22   23 2
    39   22   24 am
    40   24   39 1
    41   24   40 1
    42   25   26 1
    43   26   41 1
    44   26   42 1
    45   26   43 1
@<TRIPOS>MOLECULE
ZINC38743893
   37    40     0     0     0
SMALL
USER_CHARGES

@<TRIPOS>ATOM
      1 C1         -0.0173    1.4248    0.0099 C.3       1 <0>         0.0243
      2 O1          0.0021   -0.0041    0.0020 O.3       1 <0>        -0.3145
      3 C2          0.6057   -0.6070   -1.0555 C.ar      1 <0>         0.1433
      4 C3          1.1725    0.1638   -2.0615 C.ar      1 <0>        -0.2103
      5 C4          1.7862   -0.4452   -3.1359 C.ar      1 <0>        -0.0416
      6 C5          1.8371   -1.8362   -3.2111 C.ar      1 <0>        -0.0776
      7 C6          1.2671   -2.6074   -2.1994 C.ar      1 <0>        -0.0566
      8 C7          0.6594   -1.9926   -1.1250 C.ar      1 <0>        -0.1527
      9 C8          2.4961   -2.4944   -4.3657 C.2       1 <0>         0.0326
     10 C9          2.5950   -3.8270   -4.5370 C.2       1 <0>        -0.1663
     11 C10         3.3434   -3.9702   -5.8504 C.3       1 <0>        -0.0770
     12 H1          4.2900   -4.4890   -5.6993 H         1 <0>         0.1473
     13 N1          3.5747   -2.5747   -6.2587 N.2       1 <0>        -0.1192
     14 N2          3.0800   -1.8383   -5.4026 N.2       1 <0>        -0.1562
     15 C11         2.4861   -4.7042   -6.8834 C.3       1 <0>         0.4039
     16 H2          1.6015   -4.1151   -7.1257 H         1 <0>         0.1253
     17 N3          2.0898   -6.0365   -6.3677 N.3       1 <0>        -0.4823
     18 N4          2.7472   -7.0329   -7.2310 N.3       1 <0>        -0.4516
     19 C12         3.9048   -6.2905   -7.7686 C.3       1 <0>         0.2152
     20 H3          4.7450   -6.2255   -7.0773 H         1 <0>         0.1064
     21 N5          3.2753   -4.9707   -8.1078 N.pl3     1 <0>        -0.5066
     22 N6          3.5525   -4.5337   -9.3849 N.2       1 <0>        -0.2739
     23 C13         4.0634   -5.2991  -10.3011 C.2       1 <0>         0.3847
     24 S1          4.3654   -6.8760   -9.4411 S.3       1 <0>        -0.1608
     25 N7          4.3289   -4.9859  -11.6278 N.pl3     1 <0>        -0.8000
     26 H4          1.0053    1.8021    0.0021 H         1 <0>         0.0584
     27 H5         -0.5445    1.7859   -0.8732 H         1 <0>         0.0587
     28 H6         -0.5275    1.7763    0.9067 H         1 <0>         0.1033
     29 H7          1.1324    1.2415   -2.0029 H         1 <0>         0.1348
     30 H8          2.2266    0.1549   -3.9183 H         1 <0>         0.1381
     31 H9          1.3050   -3.6853   -2.2550 H         1 <0>         0.1326
     32 H10         0.2212   -2.5895   -0.3388 H         1 <0>         0.1377
     33 H11         2.2279   -4.6106   -3.8908 H         1 <0>         0.1790
     34 H12         2.3711   -6.1501   -5.4054 H         1 <0>         0.3313
     35 H13         3.0480   -7.8332   -6.6953 H         1 <0>         0.3500
     36 H14         4.1280   -4.0994  -11.9664 H         1 <0>         0.4177
     37 H15         4.7152   -5.6536  -12.2158 H         1 <0>         0.4225
@<TRIPOS>BOND
     1    1    2 1
     2    1   26 1
     3    1   27 1
     4    1   28 1
     5    2    3 1
     6    3    8 ar
     7    3    4 ar
     8    4    5 ar
     9    4   29 1
    10    5    6 ar
    11    5   30 1
    12    6    7 ar
    13    6    9 1
    14    7    8 ar
    15    7   31 1
    16    8   32 1
    17    9   14 1
    18    9   10 2
    19   10   11 1
    20   10   33 1
    21   11   12 1
    22   11   13 1
    23   11   15 1
    24   13   14 2
    25   15   16 1
    26   15   21 1
    27   15   17 1
    28   17   18 1
    29   17   34 1
    30   18   19 1
    31   18   35 1
    32   19   20 1
    33   19   24 1
    34   19   21 1
    35   21   22 1
    36   22   23 2
    37   23   24 1
    38   23   25 1
    39   25   36 1
    40   25   37 1
@<TRIPOS>MOLECULE
ZINC49523812
   42    43     0     0     0
SMALL
USER_CHARGES

@<TRIPOS>ATOM
      1 C1         -0.0499    1.3551   -0.3650 C.ar      1 <0>        -0.1265
      2 C2          1.1249    2.0750   -0.4611 C.ar      1 <0>        -0.1308
      3 C3          2.3405    1.4515   -0.2354 C.ar      1 <0>         0.0757
      4 C4          2.3810    0.1053    0.0866 C.ar      1 <0>        -0.1310
      5 C5          1.2085   -0.6182    0.1833 C.ar      1 <0>        -0.1144
      6 C6         -0.0115    0.0054   -0.0418 C.ar      1 <0>         0.1531
      7 N1         -1.2017   -0.7263    0.0566 N.am      1 <0>        -0.6812
      8 C7         -1.1846   -2.0650   -0.0990 C.2       1 <0>         0.7098
      9 O1         -0.1241   -2.6571   -0.1548 O.2       1 <0>        -0.5660
     10 N2         -2.3431   -2.7474   -0.1927 N.am      1 <0>        -0.6238
     11 C8         -3.6248   -2.0361   -0.2935 C.3       1 <0>         0.1102
     12 C9         -4.5630   -2.5531    0.8016 C.3       1 <0>        -0.1288
     13 C10        -4.6785   -4.0752    0.6921 C.3       1 <0>        -0.1008
     14 C11        -3.3008   -4.7091    0.8975 C.3       1 <0>        -0.1345
     15 C12        -2.3478   -4.2166   -0.2021 C.3       1 <0>         0.1281
     16 C13        -5.6420   -4.5916    1.7626 C.3       1 <0>         0.1213
     17 N3         -5.8454   -6.0312    1.5830 N.am      1 <0>        -0.6990
     18 C14        -6.6612   -6.7058    2.4172 C.2       1 <0>         0.5060
     19 O2         -7.2273   -6.1206    3.3171 O.2       1 <0>        -0.5169
     20 C15        -6.8688   -8.1744    2.2340 C.2       1 <0>         0.5132
     21 O3         -6.3028   -8.7596    1.3341 O.2       1 <0>        -0.5212
     22 N4         -7.6846   -8.8489    3.0682 N.am      1 <0>        -0.8206
     23 F1          3.4885    2.1573   -0.3298 F         1 <0>        -0.1408
     24 H1         -0.9981    1.8428   -0.5368 H         1 <0>         0.1341
     25 H2          1.0954    3.1248   -0.7129 H         1 <0>         0.1393
     26 H3          3.3301   -0.3792    0.2620 H         1 <0>         0.1385
     27 H4          1.2405   -1.6682    0.4337 H         1 <0>         0.1736
     28 H5         -2.0383   -0.2696    0.2367 H         1 <0>         0.4081
     29 H6         -3.4609   -0.9669   -0.1594 H         1 <0>         0.0792
     30 H7         -4.0688   -2.2200   -1.2718 H         1 <0>         0.0785
     31 H8         -4.1614   -2.2881    1.7797 H         1 <0>         0.0749
     32 H9         -5.5484   -2.1037    0.6785 H         1 <0>         0.0850
     33 H10        -5.0569   -4.3406   -0.2951 H         1 <0>         0.0860
     34 H11        -2.9111   -4.4239    1.8747 H         1 <0>         0.0736
     35 H12        -3.3878   -5.7943    0.8426 H         1 <0>         0.0801
     36 H13        -2.6898   -4.5746   -1.1732 H         1 <0>         0.0725
     37 H14        -1.3411   -4.5865   -0.0078 H         1 <0>         0.0989
     38 H15        -5.2214   -4.4046    2.7507 H         1 <0>         0.0764
     39 H16        -6.5976   -4.0754    1.6709 H         1 <0>         0.0777
     40 H17        -5.3930   -6.4990    0.8637 H         1 <0>         0.4139
     41 H18        -8.1371   -8.3812    3.7875 H         1 <0>         0.4151
     42 H19        -7.8193   -9.8022    2.9493 H         1 <0>         0.4134
@<TRIPOS>BOND
     1    1    6 ar
     2    1    2 ar
     3    1   24 1
     4    2    3 ar
     5    2   25 1
     6    3    4 ar
     7    3   23 1
     8    4    5 ar
     9    4   26 1
    10    5    6 ar
    11    5   27 1
    12    6    7 1
    13    7    8 am
    14    7   28 1
    15    8    9 2
    16    8   10 am
    17   10   15 1
    18   10   11 1
    19   11   12 1
    20   11   29 1
    21   11   30 1
    22   12   13 1
    23   12   31 1
    24   12   32 1
    25   13   14 1
    26   13   16 1
    27   13   33 1
    28   14   15 1
    29   14   34 1
    30   14   35 1
    31   15   36 1
    32   15   37 1
    33   16   17 1
    34   16   38 1
    35   16   39 1
    36   17   18 am
    37   17   40 1
    38   18   19 2
    39   18   20 1
    40   20   21 2
    41   20   22 am
    42   22   41 1
    43   22   42 1
@<TRIPOS>MOLECULE
ZINC60537958
   37    38     0     0     0
SMALL
USER_CHARGES

@<TRIPOS>ATOM
      1 C1         -0.0439    1.4944   -0.0039 C.3       1 <0>        -0.1193
      2 C2         -0.0206   -0.0124   -0.0072 C.ar      1 <0>        -0.0844
      3 C3         -0.0243   -0.7008   -1.2068 C.ar      1 <0>        -0.0331
      4 C4         -0.0034   -2.0832   -1.2141 C.ar      1 <0>        -0.6560
      5 C5          0.0212   -2.7814   -0.0225 C.ar      1 <0>        -0.0326
      6 C6          0.0254   -2.0933    1.1837 C.ar      1 <0>         0.1328
      7 C7          0.0101   -0.7043    1.1875 C.ar      1 <0>        -0.0572
      8 C8          0.0203    0.0466    2.4940 C.3       1 <0>        -0.1290
      9 N1          0.0504   -2.7972    2.3919 N.am      1 <0>        -0.6644
     10 C9          0.5600   -4.0442    2.4350 C.2       1 <0>         0.5801
     11 O1          1.0890   -4.5193    1.4484 O.2       1 <0>        -0.5195
     12 C10         0.4762   -4.8322    3.6782 C.2       1 <0>        -0.2636
     13 C11        -0.1437   -4.2866    4.8285 C.2       1 <0>        -0.0015
     14 C12        -0.2069   -5.0356    5.9615 C.2       1 <0>        -0.2329
     15 C13         0.3426   -6.3315    5.9673 C.2       1 <0>         0.5164
     16 N2          0.9275   -6.8302    4.8631 N.am      1 <0>        -0.5963
     17 C14         0.9963   -6.1096    3.7283 C.2       1 <0>         0.2280
     18 O2          0.2884   -7.0073    6.9811 O.2       1 <0>        -0.5303
     19 S1         -0.0088   -2.9553   -2.7452 S.o2      1 <0>         2.7022
     20 O3         -0.5369   -4.2466   -2.4752 O.2       1 <0>        -0.9599
     21 O4         -0.5847   -2.0827   -3.7076 O.2       1 <0>        -0.9627
     22 N3          1.5713   -3.1736   -3.1899 N.pl3     1 <0>        -1.2485
     23 H1          0.9778    1.8736   -0.0203 H         1 <0>         0.0769
     24 H2         -0.5782    1.8514   -0.8844 H         1 <0>         0.0748
     25 H3         -0.5483    1.8480    0.8953 H         1 <0>         0.0735
     26 H4         -0.0439   -0.1572   -2.1398 H         1 <0>         0.1452
     27 H5          0.0368   -3.8613   -0.0290 H         1 <0>         0.1666
     28 H6         -1.0046    0.2117    2.8262 H         1 <0>         0.0826
     29 H7          0.5559   -0.5359    3.2437 H         1 <0>         0.0693
     30 H8          0.5171    1.0071    2.3572 H         1 <0>         0.0837
     31 H9         -0.2992   -2.3880    3.1989 H         1 <0>         0.4129
     32 H10        -0.5598   -3.2902    4.8063 H         1 <0>         0.1374
     33 H11        -0.6748   -4.6391    6.8505 H         1 <0>         0.1587
     34 H12         1.4662   -6.5320    2.8524 H         1 <0>         0.1861
     35 H13         1.3016   -7.7250    4.8837 H         1 <0>         0.4254
     36 H14         2.2849   -2.8366   -2.6258 H         1 <0>         0.4173
     37 H15         1.7833   -3.6385   -4.0144 H         1 <0>         0.4213
@<TRIPOS>BOND
     1    1    2 1
     2    1   23 1
     3    1   24 1
     4    1   25 1
     5    2    7 ar
     6    2    3 ar
     7    3    4 ar
     8    3   26 1
     9    4    5 ar
    10    4   19 1
    11    5    6 ar
    12    5   27 1
    13    6    7 ar
    14    6    9 1
    15    7    8 1
    16    8   28 1
    17    8   29 1
    18    8   30 1
    19    9   10 am
    20    9   31 1
    21   10   11 2
    22   10   12 1
    23   12   17 2
    24   12   13 1
    25   13   32 1
    26   13   14 2
    27   14   15 1
    28   14   33 1
    29   15   18 2
    30   15   16 am
    31   16   35 1
    32   16   17 1
    33   17   34 1
    34   19   20 2
    35   19   21 2
    36   19   22 1
    37   22   36 1
    38   22   37 1
@<TRIPOS>MOLECULE
ZINC58429607
   40    42     0     0     0
SMALL
USER_CHARGES

@<TRIPOS>ATOM
      1 C1          2.4631   -1.9058   -1.0023 C.3       1 <0>        -0.0806
      2 C2          1.1339   -1.4637   -0.4467 C.2       1 <0>         0.0373
      3 C3          0.1684   -0.7750   -1.1120 C.2       1 <0>         0.0740
      4 C4         -0.8818   -0.5971   -0.1745 C.2       1 <0>        -0.0183
      5 N1         -0.4966   -1.1675    0.9508 N.2       1 <0>        -0.2435
      6 N2          0.6717   -1.6829    0.8111 N.pl3     1 <0>        -0.3716
      7 H1          1.1553   -2.1577    1.5050 H         1 <0>         0.4527
      8 C5         -2.1621    0.0955   -0.4129 C.2       1 <0>         0.6098
      9 O1         -2.4388    0.4951   -1.5274 O.2       1 <0>        -0.5315
     10 N3         -3.0252    0.2856    0.6047 N.am      1 <0>        -0.8395
     11 N4          0.2034   -0.3336   -2.4429 N.am      1 <0>        -0.6314
     12 C6          0.4463   -1.2102   -3.4374 C.2       1 <0>         0.5654
     13 O2          0.6637   -2.3780   -3.1788 O.2       1 <0>        -0.5158
     14 C7          0.4485   -0.7515   -4.8428 C.ar      1 <0>        -0.1173
     15 C8          0.2021    0.6017   -5.1357 C.ar      1 <0>        -0.0747
     16 C9          0.1988    1.0467   -6.4179 C.ar      1 <0>        -0.0822
     17 C10         0.4439    0.1516   -7.4758 C.ar      1 <0>         0.0970
     18 C11         0.6937   -1.2156   -7.1939 C.ar      1 <0>         0.0677
     19 C12         0.6985   -1.6561   -5.8603 C.ar      1 <0>        -0.0063
     20 N5          0.9275   -2.0660   -8.2000 N.ar      1 <0>        -0.4170
     21 C13         0.9234   -1.6274   -9.4376 C.ar      1 <0>         0.1089
     22 C14         0.6773   -0.2806   -9.7158 C.ar      1 <0>         0.1215
     23 N6          0.4448    0.5733   -8.7452 N.ar      1 <0>        -0.4289
     24 C15         0.6787    0.1976  -11.1449 C.3       1 <0>        -0.1103
     25 C16         1.1874   -2.5866  -10.5696 C.3       1 <0>        -0.1088
     26 H2          2.3870   -2.9360   -1.3502 H         1 <0>         0.0897
     27 H3          2.7413   -1.2605   -1.8356 H         1 <0>         0.0810
     28 H4          3.2224   -1.8406   -0.2230 H         1 <0>         0.0734
     29 H5         -2.8044   -0.0332    1.4938 H         1 <0>         0.4084
     30 H6         -3.8671    0.7411    0.4479 H         1 <0>         0.4083
     31 H7          0.0528    0.6025   -2.6475 H         1 <0>         0.4154
     32 H8          0.0127    1.2957   -4.3301 H         1 <0>         0.1400
     33 H9          0.0076    2.0889   -6.6267 H         1 <0>         0.1476
     34 H10         0.8916   -2.6936   -5.6306 H         1 <0>         0.1555
     35 H11        -0.3272    0.1151  -11.5566 H         1 <0>         0.0898
     36 H12         1.0013    1.2382  -11.1795 H         1 <0>         0.0849
     37 H13         1.3630   -0.4147  -11.7322 H         1 <0>         0.0884
     38 H14         0.2449   -3.0159  -10.9093 H         1 <0>         0.0886
     39 H15         1.6622   -2.0542  -11.3937 H         1 <0>         0.0878
     40 H16         1.8461   -3.3835  -10.2244 H         1 <0>         0.0845
@<TRIPOS>BOND
     1    1    2 1
     2    1   26 1
     3    1   27 1
     4    1   28 1
     5    2    6 1
     6    2    3 2
     7    3    4 1
     8    3   11 1
     9    4    5 2
    10    4    8 1
    11    5    6 1
    12    6    7 1
    13    8    9 2
    14    8   10 am
    15   10   29 1
    16   10   30 1
    17   11   12 am
    18   11   31 1
    19   12   13 2
    20   12   14 1
    21   14   19 ar
    22   14   15 ar
    23   15   16 ar
    24   15   32 1
    25   16   17 ar
    26   16   33 1
    27   17   23 ar
    28   17   18 ar
    29   18   19 ar
    30   18   20 ar
    31   19   34 1
    32   20   21 ar
    33   21   22 ar
    34   21   25 1
    35   22   23 ar
    36   22   24 1
    37   24   35 1
    38   24   36 1
    39   24   37 1
    40   25   38 1
    41   25   39 1
    42   25   40 1
@<TRIPOS>MOLECULE
ZINC08704609
   42    44     0     0     0
SMALL
USER_CHARGES
8-methyl-N-[4-(methylcarbamoyl)phenyl]-9-oxo-7-thia-10-azabicyclo[4.4.0]deca-2,4,11-triene-3-carboxamide
@<TRIPOS>ATOM
      1 C1          1.6423   16.2441    1.5280 C.3       1 <0>        -0.1242
      2 C2          1.2771   14.7621    1.6334 C.3       1 <0>        -0.0976
      3 H1          1.1010   14.5025    2.6773 H         1 <0>         0.1317
      4 C3          2.4024   13.9256    1.0887 C.2       1 <0>         0.5232
      5 O1          3.5231   14.3891    1.1097 O.2       1 <0>        -0.5018
      6 N1          2.2362   12.7057    0.5849 N.am      1 <0>        -0.6560
      7 C4          1.0331   12.0103    0.4901 C.ar      1 <0>         0.1537
      8 C5          1.0532   10.6291    0.3817 C.ar      1 <0>        -0.0739
      9 C6         -0.1433    9.9169    0.2719 C.ar      1 <0>        -0.1039
     10 C7         -1.3666   10.5941    0.2810 C.ar      1 <0>        -0.0903
     11 C8         -1.3879   11.9664    0.3953 C.ar      1 <0>        -0.0632
     12 C9         -0.1983   12.6745    0.5018 C.ar      1 <0>        -0.1068
     13 S1         -0.2224   14.4328    0.6592 S.3       1 <0>        -0.0668
     14 C10        -0.1166    8.4476    0.1522 C.2       1 <0>         0.5619
     15 O2          0.9467    7.8574    0.1441 O.2       1 <0>        -0.5039
     16 N2         -1.2705    7.7585    0.0517 N.am      1 <0>        -0.6675
     17 C11        -1.2521    6.3652    0.0496 C.ar      1 <0>         0.1742
     18 C12        -0.2988    5.6823    0.7989 C.ar      1 <0>        -0.1288
     19 C13        -0.2779    4.3059    0.7990 C.ar      1 <0>        -0.0354
     20 C14        -1.2156    3.5943    0.0455 C.ar      1 <0>        -0.1530
     21 C15        -2.1684    4.2832   -0.7100 C.ar      1 <0>        -0.0639
     22 C16        -2.1874    5.6596   -0.7013 C.ar      1 <0>        -0.1521
     23 C17        -1.1958    2.1186    0.0429 C.2       1 <0>         0.5582
     24 O3         -0.3631    1.5206    0.6968 O.2       1 <0>        -0.5343
     25 N3         -2.1007    1.4338   -0.6842 N.am      1 <0>        -0.7328
     26 C18        -2.0810   -0.0311   -0.6867 C.3       1 <0>         0.0863
     27 H2          1.8131   16.5028    0.4830 H         1 <0>         0.0737
     28 H3          0.8258   16.8485    1.9231 H         1 <0>         0.0800
     29 H4          2.5481   16.4369    2.1028 H         1 <0>         0.0915
     30 H5          3.0292   12.2572    0.2518 H         1 <0>         0.4175
     31 H6          1.9961   10.1024    0.3787 H         1 <0>         0.1502
     32 H7         -2.2917   10.0428    0.1984 H         1 <0>         0.1388
     33 H8         -2.3312   12.4924    0.4025 H         1 <0>         0.1483
     34 H9         -2.1138    8.2326   -0.0192 H         1 <0>         0.4140
     35 H10         0.4257    6.2329    1.3806 H         1 <0>         0.1425
     36 H11         0.4620    3.7766    1.3809 H         1 <0>         0.1416
     37 H12        -2.8917    3.7363   -1.2966 H         1 <0>         0.1313
     38 H13        -2.9262    6.1926   -1.2814 H         1 <0>         0.1349
     39 H14        -2.7674    1.9108   -1.2026 H         1 <0>         0.4010
     40 H15        -1.1222   -0.3809   -1.0693 H         1 <0>         0.0621
     41 H16        -2.2224   -0.3981    0.3298 H         1 <0>         0.0621
     42 H17        -2.8839   -0.4041   -1.3226 H         1 <0>         0.0775
@<TRIPOS>BOND
     1    1    2 1
     2    1   27 1
     3    1   28 1
     4    1   29 1
     5    2    3 1
     6    2   13 1
     7    2    4 1
     8    4    5 2
     9    4    6 am
    10    6    7 1
    11    6   30 1
    12    7   12 ar
    13    7    8 ar
    14    8    9 ar
    15    8   31 1
    16    9   10 ar
    17    9   14 1
    18   10   11 ar
    19   10   32 1
    20   11   12 ar
    21   11   33 1
    22   12   13 1
    23   14   15 2
    24   14   16 am
    25   16   17 1
    26   16   34 1
    27   17   22 ar
    28   17   18 ar
    29   18   19 ar
    30   18   35 1
    31   19   20 ar
    32   19   36 1
    33   20   21 ar
    34   20   23 1
    35   21   22 ar
    36   21   37 1
    37   22   38 1
    38   23   24 2
    39   23   25 am
    40   25   26 1
    41   25   39 1
    42   26   40 1
    43   26   41 1
    44   26   42 1
@<TRIPOS>MOLECULE
ZINC34812081
   52    55     0     0     0
SMALL
USER_CHARGES

@<TRIPOS>ATOM
      1 C1          1.6989    2.5346    1.0714 C.3       1 <0>        -0.1080
      2 C2          1.2233    1.1867    0.5941 C.ar      1 <0>        -0.1498
      3 C3          1.2128    0.8918   -0.7563 C.ar      1 <0>        -0.0534
      4 C4          0.7781   -0.3455   -1.2037 C.ar      1 <0>        -0.1663
      5 C5          0.3511   -1.3045   -0.3079 C.ar      1 <0>        -0.0253
      6 C6          0.3580   -1.0214    1.0551 C.ar      1 <0>        -0.1998
      7 C7          0.8002    0.2356    1.5058 C.ar      1 <0>         0.2335
      8 N1          0.7855    0.4823    2.8737 N.pl3     1 <0>        -0.7439
      9 C8         -0.2170   -0.2020    3.7000 C.3       1 <0>         0.4119
     10 C9          0.1865   -0.0925    5.1729 C.3       1 <0>        -0.1491
     11 C10        -0.8446   -0.8260    6.0362 C.3       1 <0>         0.1114
     12 N2         -2.1798   -0.2919    5.7354 N.am      1 <0>        -0.6265
     13 C11        -2.6312   -0.2630    4.3374 C.3       1 <0>         0.1311
     14 C12        -1.5795    0.4655    3.4947 C.3       1 <0>        -0.1519
     15 C13        -2.9759    0.1628    6.7233 C.2       1 <0>         0.7090
     16 O1         -4.0383    0.6895    6.4542 O.2       1 <0>        -0.5651
     17 N3         -2.5944    0.0336    8.0095 N.am      1 <0>        -0.6837
     18 C14        -3.4686    0.4043    9.0403 C.ar      1 <0>         0.1250
     19 C15        -4.8380    0.2389    8.8826 C.ar      1 <0>        -0.0780
     20 C16        -5.6988    0.6039    9.8989 C.ar      1 <0>        -0.1303
     21 C17        -5.1955    1.1356   11.0771 C.ar      1 <0>         0.1130
     22 C18        -3.8274    1.3015   11.2351 C.ar      1 <0>        -0.1881
     23 C19        -2.9652    0.9316   10.2218 C.ar      1 <0>        -0.1066
     24 O2         -6.0437    1.4948   12.0774 O.3       1 <0>        -0.3172
     25 C20        -5.4567    2.0356   13.2628 C.3       1 <0>         0.0266
     26 N4         -0.3054   -1.6131    3.3229 N.am      1 <0>        -0.7313
     27 C21        -0.0812   -2.0107    2.0558 C.2       1 <0>         0.5753
     28 O3         -0.2270   -3.1771    1.7445 O.2       1 <0>        -0.5329
     29 H1          2.7729    2.4973    1.2537 H         1 <0>         0.0675
     30 H2          1.4854    3.2855    0.3107 H         1 <0>         0.0706
     31 H3          1.1824    2.7960    1.9950 H         1 <0>         0.0633
     32 H4          1.5458    1.6322   -1.4686 H         1 <0>         0.1287
     33 H5          0.7732   -0.5610   -2.2620 H         1 <0>         0.1293
     34 H6          0.0143   -2.2677   -0.6617 H         1 <0>         0.1351
     35 H7          1.4241    1.0931    3.2739 H         1 <0>         0.4116
     36 H8          1.1681   -0.5443    5.3157 H         1 <0>         0.0956
     37 H9          0.2230    0.9575    5.4630 H         1 <0>         0.0940
     38 H10        -0.8182   -1.8920    5.8103 H         1 <0>         0.0775
     39 H11        -0.6170   -0.6682    7.0904 H         1 <0>         0.0892
     40 H12        -2.7509   -1.2825    3.9709 H         1 <0>         0.0734
     41 H13        -3.5823    0.2653    4.2714 H         1 <0>         0.1047
     42 H14        -1.5239    1.5091    3.8046 H         1 <0>         0.0863
     43 H15        -1.8560    0.4121    2.4418 H         1 <0>         0.0856
     44 H16        -1.7148   -0.3159    8.2217 H         1 <0>         0.4039
     45 H17        -5.2300   -0.1747    7.9652 H         1 <0>         0.1428
     46 H18        -6.7642    0.4756    9.7763 H         1 <0>         0.1352
     47 H19        -3.4362    1.7159   12.1525 H         1 <0>         0.1324
     48 H20        -1.8997    1.0566   10.3467 H         1 <0>         0.1272
     49 H21        -4.7810    1.3012   13.7013 H         1 <0>         0.0555
     50 H22        -4.8994    2.9385   13.0130 H         1 <0>         0.0554
     51 H23        -6.2419    2.2796   13.9783 H         1 <0>         0.1007
     52 H24        -0.5364   -2.2722    3.9961 H         1 <0>         0.4053
@<TRIPOS>BOND
     1    1    2 1
     2    1   29 1
     3    1   30 1
     4    1   31 1
     5    2    7 ar
     6    2    3 ar
     7    3    4 ar
     8    3   32 1
     9    4    5 ar
    10    4   33 1
    11    5    6 ar
    12    5   34 1
    13    6   27 1
    14    6    7 ar
    15    7    8 1
    16    8    9 1
    17    8   35 1
    18    9   14 1
    19    9   10 1
    20    9   26 1
    21   10   11 1
    22   10   36 1
    23   10   37 1
    24   11   12 1
    25   11   38 1
    26   11   39 1
    27   12   13 1
    28   12   15 am
    29   13   14 1
    30   13   40 1
    31   13   41 1
    32   14   42 1
    33   14   43 1
    34   15   16 2
    35   15   17 am
    36   17   18 1
    37   17   44 1
    38   18   23 ar
    39   18   19 ar
    40   19   20 ar
    41   19   45 1
    42   20   21 ar
    43   20   46 1
    44   21   22 ar
    45   21   24 1
    46   22   23 ar
    47   22   47 1
    48   23   48 1
    49   24   25 1
    50   25   49 1
    51   25   50 1
    52   25   51 1
    53   26   27 am
    54   26   52 1
    55   27   28 2
@<TRIPOS>MOLECULE
ZINC46545062
   44    47     0     0     0
SMALL
USER_CHARGES

@<TRIPOS>ATOM
      1 C1          0.0085    0.9458    0.2210 C.2       1 <0>        -0.1827
      2 C2          1.1906    1.6367    0.3392 C.2       1 <0>        -0.0663
      3 C3          2.3382    0.9252    0.0239 C.2       1 <0>        -0.2619
      4 S1          1.6715   -0.6682   -0.4172 S.3       1 <0>         0.2201
      5 C4          0.0389   -0.3479   -0.1840 C.2       1 <0>        -0.2353
      6 C5          3.7354    1.3678    0.0473 C.2       1 <0>         0.6099
      7 O1          4.0072    2.5360   -0.1592 O.2       1 <0>        -0.5223
      8 N1          4.7191    0.4811    0.2974 N.am      1 <0>        -0.6060
      9 C6          4.4077   -0.9348    0.5362 C.3       1 <0>         0.0939
     10 C7          5.0440   -1.3628    1.8624 C.3       1 <0>        -0.1333
     11 C8          6.5407   -1.0449    1.8316 C.3       1 <0>        -0.1018
     12 C9          6.7403    0.4632    1.6646 C.3       1 <0>        -0.1215
     13 H1          6.2541    0.9878    2.4871 H         1 <0>         0.1088
     14 C10         6.1237    0.9108    0.3306 C.3       1 <0>         0.1240
     15 C11         8.2138    0.7789    1.6676 C.2       1 <0>         0.5226
     16 O2          9.0252   -0.1142    1.7912 O.2       1 <0>        -0.5103
     17 N2          8.6301    2.0537    1.5330 N.am      1 <0>        -0.6708
     18 C12        10.0000    2.3406    1.4743 C.ar      1 <0>         0.1551
     19 C13        10.4919    3.4997    2.0639 C.ar      1 <0>        -0.1280
     20 C14        11.8407    3.7881    2.0095 C.ar      1 <0>        -0.0832
     21 C15        12.7087    2.9196    1.3649 C.ar      1 <0>         0.0764
     22 C16        12.2177    1.7547    0.7717 C.ar      1 <0>         0.1097
     23 C17        10.8636    1.4652    0.8330 C.ar      1 <0>        -0.1054
     24 N3         13.3103    1.0963    0.2123 N.am      1 <0>        -0.6402
     25 H2         13.2800    0.2548   -0.2693 H         1 <0>         0.4369
     26 C18        14.4154    1.8263    0.4535 C.2       1 <0>         0.6850
     27 O3         15.5414    1.5311    0.0986 O.2       1 <0>        -0.5538
     28 N4         14.0861    2.9323    1.1469 N.am      1 <0>        -0.6410
     29 H3         14.7017    3.6207    1.4438 H         1 <0>         0.4365
     30 H4         -0.9313    1.4253    0.4517 H         1 <0>         0.1384
     31 H5          1.2236    2.6683    0.6570 H         1 <0>         0.1487
     32 H6         -0.7955   -1.0191   -0.3239 H         1 <0>         0.1883
     33 H7          3.3271   -1.0673    0.5897 H         1 <0>         0.0902
     34 H8          4.8124   -1.5398   -0.2753 H         1 <0>         0.0819
     35 H9          4.5738   -0.8210    2.6830 H         1 <0>         0.0724
     36 H10         4.9024   -2.4342    2.0048 H         1 <0>         0.0880
     37 H11         7.0004   -1.3710    2.7645 H         1 <0>         0.0804
     38 H12         7.0058   -1.5676    0.9957 H         1 <0>         0.0770
     39 H13         6.6654    0.4533   -0.4973 H         1 <0>         0.0805
     40 H14         6.1757    1.9965    0.2484 H         1 <0>         0.1021
     41 H15         7.9812    2.7724    1.4767 H         1 <0>         0.4160
     42 H16         9.8165    4.1767    2.5657 H         1 <0>         0.1394
     43 H17        12.2195    4.6894    2.4682 H         1 <0>         0.1387
     44 H18        10.4816    0.5626    0.3793 H         1 <0>         0.1429
@<TRIPOS>BOND
     1    1    5 2
     2    1    2 1
     3    1   30 1
     4    2    3 2
     5    2   31 1
     6    3    4 1
     7    3    6 1
     8    4    5 1
     9    5   32 1
    10    6    7 2
    11    6    8 am
    12    8   14 1
    13    8    9 1
    14    9   10 1
    15    9   33 1
    16    9   34 1
    17   10   11 1
    18   10   35 1
    19   10   36 1
    20   11   12 1
    21   11   37 1
    22   11   38 1
    23   12   13 1
    24   12   14 1
    25   12   15 1
    26   14   39 1
    27   14   40 1
    28   15   16 2
    29   15   17 am
    30   17   18 1
    31   17   41 1
    32   18   23 ar
    33   18   19 ar
    34   19   20 ar
    35   19   42 1
    36   20   21 ar
    37   20   43 1
    38   21   28 1
    39   21   22 ar
    40   22   23 ar
    41   22   24 1
    42   23   44 1
    43   24   25 1
    44   24   26 am
    45   26   27 2
    46   26   28 am
    47   28   29 1
@<TRIPOS>MOLECULE
ZINC60740128
   41    44     0     0     0
SMALL
USER_CHARGES

@<TRIPOS>ATOM
      1 C1          2.6812    1.1930   -0.8323 C.3       1 <0>        -0.0609
      2 C2          2.3397   -0.2708   -0.7235 C.2       1 <0>         0.2359
      3 N1          1.5899   -0.9530   -1.5848 N.2       1 <0>        -0.5239
      4 C3          1.4908   -2.2076   -1.1925 C.2       1 <0>         0.3320
      5 N2          2.1967   -2.3388   -0.0456 N.pl3     1 <0>        -0.4775
      6 H1          2.3096   -3.1467    0.4792 H         1 <0>         0.4407
      7 N3          2.7383   -1.0726    0.2296 N.2       1 <0>        -0.3124
      8 C4          0.7420   -3.2794   -1.8821 C.ar      1 <0>        -0.0785
      9 C5          0.8166   -4.5943   -1.4225 C.ar      1 <0>        -0.0754
     10 C6          0.1154   -5.5904   -2.0696 C.ar      1 <0>        -0.1400
     11 C7         -0.6634   -5.2916   -3.1748 C.ar      1 <0>        -0.0742
     12 C8         -0.7462   -3.9939   -3.6403 C.ar      1 <0>        -0.1384
     13 C9         -0.0512   -2.9792   -2.9976 C.ar      1 <0>         0.2053
     14 N4         -0.1377   -1.6668   -3.4631 N.am      1 <0>        -0.6432
     15 C10        -0.3766   -1.4290   -4.7681 C.2       1 <0>         0.5777
     16 O1         -0.5877   -2.3562   -5.5265 O.2       1 <0>        -0.5287
     17 C11        -0.3819   -0.0470   -5.2755 C.2       1 <0>        -0.2492
     18 C12        -0.4890    0.1998   -6.6323 C.2       1 <0>         0.0697
     19 C13        -0.4918    1.5393   -7.0898 C.ar      1 <0>        -0.1483
     20 C14        -0.6004    1.8190   -8.4611 C.ar      1 <0>        -0.0398
     21 C15        -0.6031    3.1132   -8.8925 C.ar      1 <0>        -0.1536
     22 C16        -0.4992    4.1602   -7.9856 C.ar      1 <0>        -0.0455
     23 C17        -0.3912    3.9115   -6.6351 C.ar      1 <0>        -0.1711
     24 C18        -0.3864    2.5992   -6.1685 C.ar      1 <0>         0.2057
     25 N5         -0.2794    2.3462   -4.8175 N.am      1 <0>        -0.6236
     26 H2         -0.2083    3.0878   -4.1963 H         1 <0>         0.4209
     27 C19        -0.2798    1.0847   -4.3477 C.2       1 <0>         0.5475
     28 O2         -0.1896    0.8823   -3.1503 O.2       1 <0>        -0.5068
     29 H3          3.6003    1.3099   -1.4065 H         1 <0>         0.0821
     30 H4          1.8695    1.7190   -1.3348 H         1 <0>         0.0903
     31 H5          2.8208    1.6087    0.1656 H         1 <0>         0.0821
     32 H6          1.4231   -4.8323   -0.5611 H         1 <0>         0.1251
     33 H7          0.1744   -6.6081   -1.7128 H         1 <0>         0.1323
     34 H8         -1.2090   -6.0776   -3.6757 H         1 <0>         0.1333
     35 H9         -1.3553   -3.7681   -4.5031 H         1 <0>         0.1585
     36 H10        -0.0260   -0.9255   -2.8476 H         1 <0>         0.4403
     37 H11        -0.5691   -0.6182   -7.3329 H         1 <0>         0.1599
     38 H12        -0.6812    1.0111   -9.1733 H         1 <0>         0.1414
     39 H13        -0.6864    3.3255   -9.9481 H         1 <0>         0.1351
     40 H14        -0.5028    5.1794   -8.3429 H         1 <0>         0.1368
     41 H15        -0.3103    4.7331   -5.9389 H         1 <0>         0.1383
@<TRIPOS>BOND
     1    1    2 1
     2    1   29 1
     3    1   30 1
     4    1   31 1
     5    2    7 2
     6    2    3 1
     7    3    4 2
     8    4    5 1
     9    4    8 1
    10    5    6 1
    11    5    7 1
    12    8   13 ar
    13    8    9 ar
    14    9   10 ar
    15    9   32 1
    16   10   11 ar
    17   10   33 1
    18   11   12 ar
    19   11   34 1
    20   12   13 ar
    21   12   35 1
    22   13   14 1
    23   14   15 am
    24   14   36 1
    25   15   16 2
    26   15   17 1
    27   17   27 1
    28   17   18 2
    29   18   19 1
    30   18   37 1
    31   19   24 ar
    32   19   20 ar
    33   20   21 ar
    34   20   38 1
    35   21   22 ar
    36   21   39 1
    37   22   23 ar
    38   22   40 1
    39   23   24 ar
    40   23   41 1
    41   24   25 1
    42   25   26 1
    43   25   27 am
    44   27   28 2
@<TRIPOS>MOLECULE
ZINC65106185
   39    41     0     0     0
SMALL
USER_CHARGES

@<TRIPOS>ATOM
      1 C1         -0.0184    1.5028    0.0103 C.3       1 <0>        -0.1346
      2 C2          0.0021   -0.0041    0.0020 C.2       1 <0>         0.0546
      3 C3          0.0060   -0.7062   -1.2115 C.2       1 <0>        -0.2378
      4 C4          0.0249   -2.0595   -1.2090 C.2       1 <0>         0.1809
      5 N1          0.0401   -2.7504   -0.0404 N.am      1 <0>        -0.6075
      6 H1          0.0536   -3.7202   -0.0569 H         1 <0>         0.4159
      7 C5          0.0373   -2.1048    1.1412 C.2       1 <0>         0.5267
      8 O1          0.0515   -2.7399    2.1835 O.2       1 <0>        -0.5408
      9 C6          0.0227   -0.6999    1.1750 C.2       1 <0>        -0.2614
     10 C7          0.0247    0.0301    2.4934 C.3       1 <0>         0.1889
     11 N2         -1.3484    0.1422    2.9916 N.am      1 <0>        -0.7177
     12 C8         -1.5916    0.7619    4.1635 C.2       1 <0>         0.5847
     13 O2         -0.6710    1.2281    4.8075 O.2       1 <0>        -0.4929
     14 C9         -2.9700    0.8743    4.6637 C.2       1 <0>        -0.0008
     15 C10        -3.3814    1.4819    5.8385 C.2       1 <0>        -0.1296
     16 C11        -4.7705    1.3290    5.8669 C.2       1 <0>         0.0960
     17 N3         -5.1253    0.6813    4.7868 N.2       1 <0>        -0.2563
     18 N4         -4.1032    0.4054    4.0597 N.pl3     1 <0>        -0.3691
     19 H2         -4.1307   -0.0664    3.2126 H         1 <0>         0.4490
     20 C12        -5.6954    1.8226    6.9494 C.3       1 <0>        -0.0882
     21 C13        -7.1574    1.3757    6.8875 C.3       1 <0>        -0.1613
     22 C14        -6.7839    2.8201    6.5481 C.3       1 <0>        -0.1589
     23 Br1        -2.2952    2.3365    7.1291 Br        1 <0>         0.0245
     24 C15         0.0285   -2.8074   -2.5173 C.3       1 <0>        -0.1313
     25 H3          1.0042    1.8801    0.0026 H         1 <0>         0.0897
     26 H4         -0.5455    1.8639   -0.8728 H         1 <0>         0.0793
     27 H5         -0.5286    1.8543    0.9071 H         1 <0>         0.0783
     28 H6         -0.0064   -0.1676   -2.1475 H         1 <0>         0.1494
     29 H7          0.6286   -0.5220    3.2135 H         1 <0>         0.0868
     30 H8          0.4438    1.0269    2.3561 H         1 <0>         0.0858
     31 H9         -2.0826   -0.2296    2.4781 H         1 <0>         0.3931
     32 H10        -5.2455    1.9383    7.9355 H         1 <0>         0.1294
     33 H11        -7.4503    0.7247    6.0638 H         1 <0>         0.1026
     34 H12        -7.6696    1.1972    7.8330 H         1 <0>         0.1019
     35 H13        -7.0504    3.5918    7.2702 H         1 <0>         0.1040
     36 H14        -6.8310    3.1193    5.5010 H         1 <0>         0.0958
     37 H15         1.0569   -2.9734   -2.8381 H         1 <0>         0.0943
     38 H16        -0.4713   -3.7674   -2.3885 H         1 <0>         0.0801
     39 H17        -0.4975   -2.2223   -3.2718 H         1 <0>         0.0963
@<TRIPOS>BOND
     1    1    2 1
     2    1   25 1
     3    1   26 1
     4    1   27 1
     5    2    9 2
     6    2    3 1
     7    3    4 2
     8    3   28 1
     9    4    5 1
    10    4   24 1
    11    5    6 1
    12    5    7 am
    13    7    8 2
    14    7    9 1
    15    9   10 1
    16   10   11 1
    17   10   29 1
    18   10   30 1
    19   11   12 am
    20   11   31 1
    21   12   13 2
    22   12   14 1
    23   14   18 1
    24   14   15 2
    25   15   16 1
    26   15   23 1
    27   16   17 2
    28   16   20 1
    29   17   18 1
    30   18   19 1
    31   20   22 1
    32   20   21 1
    33   20   32 1
    34   21   22 1
    35   21   33 1
    36   21   34 1
    37   22   35 1
    38   22   36 1
    39   24   37 1
    40   24   38 1
    41   24   39 1
@<TRIPOS>MOLECULE
ZINC10391656
   30    31     0     0     0
SMALL
USER_CHARGES
6-[(5-amino-1,3,4-thiadiazol-2-yl)sulfanylmethyl]-N',N'-dimethyl-1,3,5-triazine-2,4-diamine
@<TRIPOS>ATOM
      1 C1         -0.0684   -2.7832   -0.0113 C.3       1 <0>         0.0982
      2 N1          1.1873   -2.0287   -0.0197 N.pl3     1 <0>        -0.5772
      3 C2          2.4685   -2.7390   -0.0358 C.3       1 <0>         0.0970
      4 C3          1.1633   -0.6490   -0.0125 C.ar      1 <0>         0.6293
      5 N2          2.3039    0.0375   -0.0197 N.ar      1 <0>        -0.6197
      6 C4          2.2819    1.3586   -0.0124 C.ar      1 <0>         0.4426
      7 N3          1.1286    2.0038    0.0020 N.ar      1 <0>        -0.6247
      8 C5         -0.0159    1.3245    0.0093 C.ar      1 <0>         0.6345
      9 N4          0.0021   -0.0041    0.0020 N.ar      1 <0>        -0.6486
     10 N5         -1.2197    1.9990    0.0187 N.pl3     1 <0>        -0.8034
     11 C6          3.5755    2.1318   -0.0206 C.3       1 <0>        -0.0506
     12 S1          4.0781    2.4512   -1.7341 S.3       1 <0>         0.0883
     13 C7          5.5853    3.3502   -1.5756 C.2       1 <0>         0.0385
     14 N6          6.2267    3.7210   -0.4842 N.2       1 <0>        -0.2717
     15 N7          7.4041    4.4250   -0.5882 N.2       1 <0>        -0.3730
     16 C8          7.8859    4.7259   -1.7781 C.2       1 <0>         0.3523
     17 S2          6.6572    3.9964   -2.8500 S.3       1 <0>         0.0039
     18 N8          9.0433    5.4206   -2.1098 N.pl3     1 <0>        -0.7889
     19 H1         -0.3899   -2.9652   -1.0368 H         1 <0>         0.0568
     20 H2          0.0834   -3.7358    0.4963 H         1 <0>         0.0738
     21 H3         -0.8332   -2.2101    0.5129 H         1 <0>         0.0820
     22 H4          2.7963   -2.9203    0.9879 H         1 <0>         0.0574
     23 H5          2.3498   -3.6909   -0.5533 H         1 <0>         0.0738
     24 H6          3.2128   -2.1342   -0.5538 H         1 <0>         0.0856
     25 H7         -2.0535    1.5033    0.0200 H         1 <0>         0.4180
     26 H8         -1.2321    2.9690    0.0240 H         1 <0>         0.4200
     27 H9          3.4357    3.0794    0.4997 H         1 <0>         0.1296
     28 H10         4.3488    1.5515    0.4827 H         1 <0>         0.1296
     29 H11         9.6231    5.7593   -1.4098 H         1 <0>         0.4231
     30 H12         9.2712    5.5666   -3.0413 H         1 <0>         0.4235
@<TRIPOS>BOND
     1    1    2 1
     2    1   19 1
     3    1   20 1
     4    1   21 1
     5    2    3 1
     6    2    4 1
     7    3   22 1
     8    3   23 1
     9    3   24 1
    10    4    9 ar
    11    4    5 ar
    12    5    6 ar
    13    6    7 ar
    14    6   11 1
    15    7    8 ar
    16    8    9 ar
    17    8   10 1
    18   10   25 1
    19   10   26 1
    20   11   12 1
    21   11   27 1
    22   11   28 1
    23   12   13 1
    24   13   17 1
    25   13   14 2
    26   14   15 1
    27   15   16 2
    28   16   17 1
    29   16   18 1
    30   18   29 1
    31   18   30 1
@<TRIPOS>MOLECULE
ZINC40327081
   31    33     0     0     0
SMALL
USER_CHARGES

@<TRIPOS>ATOM
      1 C1         -0.0164    1.3570    0.0095 C.ar      1 <0>        -0.1098
      2 C2          1.1701    2.0880    0.0021 C.ar      1 <0>        -0.1449
      3 C3          2.3794    1.4644   -0.0133 C.ar      1 <0>        -0.0673
      4 C4          2.4407    0.0595   -0.0214 C.ar      1 <0>         0.0557
      5 C5          1.2326   -0.6818   -0.0134 C.ar      1 <0>        -0.0447
      6 C6          0.0021   -0.0041    0.0020 C.ar      1 <0>        -0.1200
      7 C7          1.2925   -2.0868   -0.0215 C.ar      1 <0>        -0.1578
      8 C8          2.5391   -2.6833   -0.0370 C.ar      1 <0>         0.2188
      9 C9          3.6887   -1.8842   -0.0441 C.ar      1 <0>         0.0364
     10 N1          3.6161   -0.5764   -0.0360 N.ar      1 <0>        -0.4438
     11 N2          2.6514   -4.0756   -0.0450 N.2       1 <0>        -1.0793
     12 S1          4.1474   -4.7856   -0.0637 S.o2      1 <0>         2.6077
     13 O1          4.7379   -4.4558   -1.3134 O.2       1 <0>        -1.0070
     14 O2          4.7630   -4.4682    1.1771 O.2       1 <0>        -1.0121
     15 C10         3.8964   -6.5296   -0.0698 C.2       1 <0>        -0.7896
     16 C11         4.2417   -7.4075   -1.1011 C.2       1 <0>         0.3153
     17 N3          3.9013   -8.6186   -0.7415 N.pl3     1 <0>        -0.3891
     18 N4          3.3261   -8.5556    0.5340 N.pl3     1 <0>        -0.4701
     19 C12         3.3369   -7.2630    0.9318 C.2       1 <0>         0.5664
     20 N5          2.8599   -6.7714    2.1437 N.pl3     1 <0>        -0.7799
     21 H1         -0.9627    1.8772    0.0259 H         1 <0>         0.1173
     22 H2          1.1291    3.1672    0.0083 H         1 <0>         0.1193
     23 H3          3.2891    2.0464   -0.0196 H         1 <0>         0.1251
     24 H4         -0.9240   -0.5598    0.0082 H         1 <0>         0.1212
     25 H5          0.3913   -2.6819   -0.0153 H         1 <0>         0.1296
     26 H6          4.6592   -2.3578   -0.0559 H         1 <0>         0.1323
     27 H7          4.7091   -7.1331   -2.0353 H         1 <0>         0.2501
     28 H8          2.9107   -5.8219    2.3356 H         1 <0>         0.4538
     29 H9          2.4766   -7.3782    2.7962 H         1 <0>         0.4239
     30 H10         2.9838   -9.3068    1.0434 H         1 <0>         0.4662
     31 H11         4.0262   -9.4233   -1.2686 H         1 <0>         0.4760
@<TRIPOS>BOND
     1    1    6 ar
     2    1    2 ar
     3    1   21 1
     4    2    3 ar
     5    2   22 1
     6    3    4 ar
     7    3   23 1
     8    4   10 ar
     9    4    5 ar
    10    5    6 ar
    11    5    7 ar
    12    6   24 1
    13    7    8 ar
    14    7   25 1
    15    8    9 ar
    16    8   11 1
    17    9   10 ar
    18    9   26 1
    19   11   12 1
    20   12   13 2
    21   12   14 2
    22   12   15 1
    23   15   16 1
    24   15   19 2
    25   16   27 1
    26   16   17 2
    27   17   18 1
    28   17   31 1
    29   18   19 1
    30   18   30 1
    31   19   20 1
    32   20   28 1
    33   20   29 1
@<TRIPOS>MOLECULE
ZINC48839659
   35    36     0     0     0
SMALL
USER_CHARGES

@<TRIPOS>ATOM
      1 C1         -0.0166    1.3741    0.0096 C.2       1 <0>        -0.2175
      2 C2          1.3217    1.7913   -0.0009 C.2       1 <0>        -0.0742
      3 C3          2.0880    0.6771   -0.0142 C.2       1 <0>        -0.6431
      4 O1          1.2929   -0.3992   -0.0124 O.3       1 <0>        -0.1015
      5 C4          0.0021   -0.0041    0.0020 C.2       1 <0>         0.0387
      6 C5         -1.1668   -0.8810    0.0092 C.2       1 <0>         0.5482
      7 O2         -2.2932   -0.4001    0.0232 O.co2     1 <0>        -0.6383
      8 O3         -1.0201   -2.0971    0.0012 O.co2     1 <0>        -0.6513
      9 S1          3.8497    0.6475   -0.0312 S.o2      1 <0>         2.7304
     10 O4          4.2294   -0.6016   -0.5924 O.2       1 <0>        -0.9423
     11 O5          4.2715    1.8887   -0.5794 O.2       1 <0>        -0.9318
     12 N1          4.3543    0.6307    1.5459 N.pl3     1 <0>        -1.1315
     13 C6          4.0475   -0.5186    2.4010 C.3       1 <0>         0.1281
     14 H1          3.9028   -1.4038    1.7817 H         1 <0>         0.1248
     15 C7          2.7702   -0.2371    3.1948 C.3       1 <0>        -0.1389
     16 C8          2.4497   -1.4374    4.0878 C.3       1 <0>        -0.1316
     17 C9          3.6098   -1.6766    5.0563 C.3       1 <0>        -0.1172
     18 C10         4.8871   -1.9581    4.2626 C.3       1 <0>        -0.1401
     19 C11         5.2075   -0.7578    3.3695 C.3       1 <0>         0.0267
     20 H2          5.3522    0.1275    3.9888 H         1 <0>         0.1502
     21 N2          6.4339   -1.0280    2.6074 N.4       1 <0>        -0.6374
     22 H3         -0.8908    2.0081    0.0253 H         1 <0>         0.1633
     23 H4          1.6748    2.8120    0.0009 H         1 <0>         0.1600
     24 H5          4.8531    1.3819    1.9036 H         1 <0>         0.4212
     25 H6          2.9149    0.6481    3.8141 H         1 <0>         0.0830
     26 H7          1.9437   -0.0667    2.5048 H         1 <0>         0.0951
     27 H8          1.5397   -1.2369    4.6533 H         1 <0>         0.0867
     28 H9          2.3050   -2.3227    3.4685 H         1 <0>         0.0798
     29 H10         3.7545   -0.7913    5.6756 H         1 <0>         0.0752
     30 H11         3.3815   -2.5317    5.6925 H         1 <0>         0.0884
     31 H12         5.7135   -2.1285    4.9526 H         1 <0>         0.0939
     32 H13         4.7424   -2.8433    3.6433 H         1 <0>         0.0947
     33 H14         6.6453   -0.2365    2.0185 H         1 <0>         0.4336
     34 H15         7.1990   -1.1858    3.2461 H         1 <0>         0.4362
     35 H16         6.3000   -1.8475    2.0342 H         1 <0>         0.4383
@<TRIPOS>BOND
     1    1    5 2
     2    1    2 1
     3    1   22 1
     4    2    3 2
     5    2   23 1
     6    3    4 1
     7    3    9 1
     8    4    5 1
     9    5    6 1
    10    6    7 2
    11    6    8 1
    12    9   10 2
    13    9   11 2
    14    9   12 1
    15   12   13 1
    16   12   24 1
    17   13   14 1
    18   13   19 1
    19   13   15 1
    20   15   16 1
    21   15   25 1
    22   15   26 1
    23   16   17 1
    24   16   27 1
    25   16   28 1
    26   17   18 1
    27   17   29 1
    28   17   30 1
    29   18   19 1
    30   18   31 1
    31   18   32 1
    32   19   20 1
    33   19   21 1
    34   21   33 1
    35   21   34 1
    36   21   35 1
@<TRIPOS>MOLECULE
ZINC50396765
   34    35     0     0     0
SMALL
USER_CHARGES

@<TRIPOS>ATOM
      1 C1          0.0155    1.4174   -0.2137 C.ar      1 <0>         0.0054
      2 C2          1.2260    2.0694   -0.2762 C.ar      1 <0>        -0.1852
      3 C3          2.4089    1.3652   -0.0699 C.ar      1 <0>         0.3128
      4 C4          2.3716   -0.0003    0.2002 C.ar      1 <0>        -0.1272
      5 C5          1.1646   -0.6577    0.2640 C.ar      1 <0>         0.0471
      6 C6         -0.0253    0.0469    0.0577 C.ar      1 <0>        -0.1943
      7 C7         -1.3211   -0.6549    0.1258 C.2       1 <0>         0.5726
      8 O1         -1.3552   -1.8472    0.3620 O.2       1 <0>        -0.5361
      9 N1         -2.4673    0.0256   -0.0737 N.am      1 <0>        -0.8496
     10 N2          3.6318   -0.7454    0.4185 N.pl3     1 <0>         0.0420
     11 O2          3.7475   -1.8734   -0.0010 O.2       1 <0>        -0.1380
     12 O3          4.5454   -0.2261    1.0162 O.3       1 <0>        -0.1774
     13 N3          3.6303    2.0266   -0.1341 N.pl3     1 <0>        -0.7032
     14 C8          3.6674    3.4826   -0.2921 C.3       1 <0>         0.1328
     15 H1          2.8384    3.7994   -0.9249 H         1 <0>         0.1205
     16 C9          4.9903    3.8895   -0.9458 C.3       1 <0>        -0.1340
     17 C10         5.1290    5.4138   -0.8511 C.3       1 <0>        -0.1330
     18 C11         5.3077    5.7988    0.6180 C.3       1 <0>         0.1030
     19 N4          4.2705    5.1834    1.4365 N.am      1 <0>        -0.7146
     20 C12         3.5436    4.1339    1.0554 C.2       1 <0>         0.4996
     21 O4          2.7365    3.6816    1.8395 O.2       1 <0>        -0.5328
     22 H2         -0.9021    1.9651   -0.3698 H         1 <0>         0.1444
     23 H3          1.2582    3.1283   -0.4858 H         1 <0>         0.1470
     24 H4          1.1364   -1.7169    0.4728 H         1 <0>         0.1609
     25 H5         -2.4401    0.9767   -0.2621 H         1 <0>         0.4003
     26 H6         -3.3193   -0.4358   -0.0289 H         1 <0>         0.4092
     27 H7          4.4577    1.5240   -0.0743 H         1 <0>         0.4172
     28 H8          5.8197    3.4124   -0.4236 H         1 <0>         0.0837
     29 H9          4.9914    3.5852   -1.9924 H         1 <0>         0.0901
     30 H10         5.9988    5.7380   -1.4225 H         1 <0>         0.0975
     31 H11         4.2309    5.8880   -1.2468 H         1 <0>         0.0788
     32 H12         6.2855    5.4621    0.9624 H         1 <0>         0.0719
     33 H13         5.2483    6.8828    0.7161 H         1 <0>         0.0843
     34 H14         4.1001    5.5607    2.3137 H         1 <0>         0.4043
@<TRIPOS>BOND
     1    1    6 ar
     2    1    2 ar
     3    1   22 1
     4    2    3 ar
     5    2   23 1
     6    3    4 ar
     7    3   13 1
     8    4    5 ar
     9    4   10 1
    10    5    6 ar
    11    5   24 1
    12    6    7 1
    13    7    8 2
    14    7    9 am
    15    9   25 1
    16    9   26 1
    17   10   11 2
    18   10   12 1
    19   13   14 1
    20   13   27 1
    21   14   15 1
    22   14   20 1
    23   14   16 1
    24   16   17 1
    25   16   28 1
    26   16   29 1
    27   17   18 1
    28   17   30 1
    29   17   31 1
    30   18   19 1
    31   18   32 1
    32   18   33 1
    33   19   20 am
    34   19   34 1
    35   20   21 2
@<TRIPOS>MOLECULE
ZINC57292318
   32    32     0     0     0
SMALL
USER_CHARGES

@<TRIPOS>ATOM
      1 C1         -0.0178    1.4608    0.0101 C.3       1 <0>         0.1022
      2 N1          0.0021   -0.0041    0.0020 N.am      1 <0>        -0.7470
      3 C2          0.6044   -0.6754    1.0035 C.2       1 <0>         0.7120
      4 O1          1.1313   -0.0652    1.9137 O.2       1 <0>        -0.5639
      5 N2          0.6227   -2.0230    0.9961 N.am      1 <0>        -0.5309
      6 N3          0.0156   -2.7260   -0.0527 N.am      1 <0>        -0.5239
      7 C3          0.0338   -4.0736   -0.0601 C.2       1 <0>         0.5129
      8 O2          0.5758   -4.6777    0.8412 O.2       1 <0>        -0.5257
      9 C4         -0.6192   -4.8299   -1.1882 C.3       1 <0>         0.1129
     10 N4         -0.4636   -6.2695   -0.9656 N.am      1 <0>        -0.7176
     11 C5         -0.9723   -7.1474   -1.8527 C.2       1 <0>         0.5608
     12 O3         -1.5603   -6.7447   -2.8375 O.2       1 <0>        -0.5098
     13 C6         -0.8154   -8.5995   -1.6281 C.ar      1 <0>        -0.1343
     14 C7         -0.1457   -9.0657   -0.4951 C.ar      1 <0>        -0.0727
     15 C8         -0.0032  -10.4220   -0.2912 C.ar      1 <0>        -0.1236
     16 C9         -0.5215  -11.3216   -1.2066 C.ar      1 <0>        -0.0772
     17 C10        -1.1857  -10.8683   -2.3315 C.ar      1 <0>        -0.1213
     18 C11        -1.3414   -9.5123   -2.5454 C.ar      1 <0>         0.0159
     19 Cl1        -2.1823   -8.9443   -3.9540 Cl        1 <0>        -0.0287
     20 H1          1.0048    1.8381    0.0023 H         1 <0>         0.0640
     21 H2         -0.5450    1.8219   -0.8730 H         1 <0>         0.0812
     22 H3         -0.5280    1.8123    0.9069 H         1 <0>         0.0640
     23 H4         -0.4183   -0.4908   -0.7241 H         1 <0>         0.3931
     24 H5          1.0561   -2.5061    1.7169 H         1 <0>         0.4451
     25 H6         -0.4179   -2.2429   -0.7735 H         1 <0>         0.4236
     26 H7         -1.6796   -4.5807   -1.2268 H         1 <0>         0.1105
     27 H8         -0.1468   -4.5549   -2.1313 H         1 <0>         0.1105
     28 H9          0.0055   -6.5908   -0.1797 H         1 <0>         0.4122
     29 H10         0.2601   -8.3654    0.2200 H         1 <0>         0.1365
     30 H11         0.5147  -10.7834    0.5850 H         1 <0>         0.1379
     31 H12        -0.4064  -12.3827   -1.0416 H         1 <0>         0.1392
     32 H13        -1.5871  -11.5756   -3.0420 H         1 <0>         0.1421
@<TRIPOS>BOND
     1    1    2 1
     2    1   20 1
     3    1   21 1
     4    1   22 1
     5    2    3 am
     6    2   23 1
     7    3    4 2
     8    3    5 am
     9    5    6 1
    10    5   24 1
    11    6    7 am
    12    6   25 1
    13    7    8 2
    14    7    9 1
    15    9   10 1
    16    9   26 1
    17    9   27 1
    18   10   11 am
    19   10   28 1
    20   11   12 2
    21   11   13 1
    22   13   18 ar
    23   13   14 ar
    24   14   15 ar
    25   14   29 1
    26   15   16 ar
    27   15   30 1
    28   16   17 ar
    29   16   31 1
    30   17   18 ar
    31   17   32 1
    32   18   19 1
@<TRIPOS>MOLECULE
ZINC01724573
   26    26     0     0     0
SMALL
USER_CHARGES
4-chlorobenzene-1,3-disulfonohydrazide
@<TRIPOS>ATOM
      1 C1         -3.8856   -1.2031   -3.3748 C.ar      1 <0>         0.0475
      2 C2         -3.8109    0.1508   -3.1060 C.ar      1 <0>        -0.1463
      3 C3         -3.5438    1.0447   -4.1273 C.ar      1 <0>         0.1030
      4 C4         -3.3456    0.5825   -5.4164 C.ar      1 <0>        -0.6839
      5 C5         -3.4145   -0.7718   -5.6828 C.ar      1 <0>         0.0963
      6 C6         -3.6819   -1.6647   -4.6616 C.ar      1 <0>        -0.7071
      7 S1         -3.7702   -3.3913   -5.0022 S.o2      1 <0>         2.7110
      8 O1         -4.0881   -3.5174   -6.3814 O.2       1 <0>        -0.9400
      9 O2         -4.5723   -3.9664   -3.9798 O.2       1 <0>        -0.9266
     10 N1         -2.2450   -4.0069   -4.8098 N.pl3     1 <0>        -0.9658
     11 N2         -1.6132   -3.9018   -3.6032 N.3       1 <0>        -0.5845
     12 S2         -3.0047    1.7203   -6.7179 S.o2      1 <0>         2.7189
     13 O3         -2.8101    0.9462   -7.8935 O.2       1 <0>        -0.9355
     14 O4         -3.9890    2.7417   -6.6325 O.2       1 <0>        -0.9340
     15 N3         -1.5505    2.4347   -6.3754 N.pl3     1 <0>        -0.9575
     16 N4         -0.4319    1.6663   -6.2199 N.3       1 <0>        -0.5865
     17 Cl1        -3.4568    2.7458   -3.7918 Cl        1 <0>        -0.0256
     18 H1         -4.0992   -1.9007   -2.5785 H         1 <0>         0.1654
     19 H2         -3.9660    0.5110   -2.0997 H         1 <0>         0.1577
     20 H3         -3.2598   -1.1326   -6.6889 H         1 <0>         0.1706
     21 H4         -1.7986   -4.4386   -5.5550 H         1 <0>         0.4164
     22 H5         -0.6940   -4.3162   -3.6391 H         1 <0>         0.3665
     23 H6         -1.5647   -2.9397   -3.3030 H         1 <0>         0.3318
     24 H7         -1.4931    3.3988   -6.2852 H         1 <0>         0.3985
     25 H8          0.2423    1.8581   -6.9457 H         1 <0>         0.3586
     26 H9         -0.0264    1.7988   -5.3055 H         1 <0>         0.3510
@<TRIPOS>BOND
     1    1    6 ar
     2    1    2 ar
     3    1   18 1
     4    2    3 ar
     5    2   19 1
     6    3    4 ar
     7    3   17 1
     8    4    5 ar
     9    4   12 1
    10    5    6 ar
    11    5   20 1
    12    6    7 1
    13    7    8 2
    14    7    9 2
    15    7   10 1
    16   10   11 1
    17   10   21 1
    18   11   22 1
    19   11   23 1
    20   12   13 2
    21   12   14 2
    22   12   15 1
    23   15   16 1
    24   15   24 1
    25   16   25 1
    26   16   26 1
@<TRIPOS>MOLECULE
ZINC37021977
   34    35     0     0     0
SMALL
USER_CHARGES

@<TRIPOS>ATOM
      1 C1          2.0464    0.5763   -0.2438 C.3       1 <0>        -0.0950
      2 C2          0.9002   -0.3936   -0.1150 C.2       1 <0>         0.1021
      3 C3         -0.0116   -0.6901   -1.0761 C.2       1 <0>        -0.0211
      4 C4         -0.9020   -1.6355   -0.5466 C.2       1 <0>         0.0982
      5 N1         -0.5409   -1.8974    0.6833 N.2       1 <0>        -0.2832
      6 N2          0.5952   -1.1344    0.9817 N.pl3     1 <0>        -0.4699
      7 H1          1.0773   -1.1334    1.8235 H         1 <0>         0.4452
      8 C5         -2.0745   -2.2455   -1.2706 C.3       1 <0>        -0.0742
      9 N3         -0.0557   -0.1453   -2.3732 N.am      1 <0>        -0.6403
     10 C6          0.3535   -0.8794   -3.4268 C.2       1 <0>         0.5340
     11 O1          0.6705   -2.0399   -3.2709 O.2       1 <0>        -0.5048
     12 C7          0.4171   -0.2587   -4.7985 C.3       1 <0>        -0.1424
     13 S1          1.0005   -1.4921   -5.9939 S.3       1 <0>         0.0860
     14 C8          1.0197   -0.6240   -7.5271 C.2       1 <0>         0.3907
     15 N4          1.4121   -1.2749   -8.6577 N.am      1 <0>        -0.6219
     16 H2          1.6767   -2.2070   -8.6124 H         1 <0>         0.4206
     17 C9          1.4329   -0.6257   -9.8404 C.2       1 <0>         0.5435
     18 O2          1.7829   -1.2016  -10.8586 O.2       1 <0>        -0.5471
     19 C10         1.0466    0.7175   -9.8805 C.2       1 <0>        -0.4001
     20 C11         0.6552    1.3349   -8.7006 C.2       1 <0>         0.4603
     21 N5          0.6493    0.6397   -7.5579 N.2       1 <0>        -0.5817
     22 N6          0.2682    2.6601   -8.7074 N.pl3     1 <0>        -0.8290
     23 H3          2.9255    0.0522   -0.6187 H         1 <0>         0.0856
     24 H4          1.7735    1.3710   -0.9381 H         1 <0>         0.0865
     25 H5          2.2690    1.0073    0.7323 H         1 <0>         0.0769
     26 H6         -1.7931   -3.2249   -1.6575 H         1 <0>         0.0822
     27 H7         -2.9112   -2.3542   -0.5804 H         1 <0>         0.0767
     28 H8         -2.3674   -1.5986   -2.0976 H         1 <0>         0.0734
     29 H9         -0.3805    0.7586   -2.5088 H         1 <0>         0.4090
     30 H10        -0.5756    0.0863   -5.0876 H         1 <0>         0.1338
     31 H11         1.1053    0.5864   -4.7833 H         1 <0>         0.1337
     32 H12         1.0530    1.2643  -10.8118 H         1 <0>         0.1491
     33 H13         0.2695    3.1614   -9.5378 H         1 <0>         0.4166
     34 H14        -0.0050    3.0898   -7.8819 H         1 <0>         0.4066
@<TRIPOS>BOND
     1    1    2 1
     2    1   23 1
     3    1   24 1
     4    1   25 1
     5    2    6 1
     6    2    3 2
     7    3    4 1
     8    3    9 1
     9    4    5 2
    10    4    8 1
    11    5    6 1
    12    6    7 1
    13    8   26 1
    14    8   27 1
    15    8   28 1
    16    9   10 am
    17    9   29 1
    18   10   11 2
    19   10   12 1
    20   12   13 1
    21   12   30 1
    22   12   31 1
    23   13   14 1
    24   14   21 2
    25   14   15 1
    26   15   16 1
    27   15   17 am
    28   17   18 2
    29   17   19 1
    30   19   20 2
    31   19   32 1
    32   20   21 1
    33   20   22 1
    34   22   33 1
    35   22   34 1
@<TRIPOS>MOLECULE
ZINC48950518
   29    30     0     0     0
SMALL
USER_CHARGES

@<TRIPOS>ATOM
      1 C1         -0.0178    1.4608    0.0101 C.3       1 <0>         0.1023
      2 N1          0.0021   -0.0041    0.0020 N.am      1 <0>        -0.7478
      3 C2         -1.1558   -0.6938    0.0094 C.2       1 <0>         0.7119
      4 O1         -2.2169   -0.1002    0.0227 O.2       1 <0>        -0.5644
      5 N2         -1.1375   -2.0414    0.0020 N.am      1 <0>        -0.5296
      6 N3          0.0851   -2.7253   -0.0134 N.am      1 <0>        -0.5260
      7 C3          0.1034   -4.0729   -0.0208 C.2       1 <0>         0.5688
      8 O2         -0.9412   -4.6951   -0.0142 O.2       1 <0>        -0.5229
      9 C4          1.3917   -4.7936   -0.0370 C.ar      1 <0>        -0.1232
     10 C5          2.5935   -4.0783   -0.0388 C.ar      1 <0>        -0.0745
     11 C6          3.7962   -4.7474   -0.0539 C.ar      1 <0>        -0.1080
     12 C7          3.8193   -6.1369   -0.0674 C.ar      1 <0>         0.1230
     13 C8          2.6209   -6.8581   -0.0656 C.ar      1 <0>         0.0835
     14 C9          1.4111   -6.1894   -0.0447 C.ar      1 <0>        -0.0334
     15 N4          2.9650   -8.2086   -0.0806 N.am      1 <0>        -0.6385
     16 H1          2.3436   -8.9535   -0.0834 H         1 <0>         0.4407
     17 C10         4.3081   -8.3017   -0.0909 C.2       1 <0>         0.6854
     18 O3          4.9380   -9.3427   -0.1047 O.2       1 <0>        -0.5440
     19 N5          4.8487   -7.0690   -0.0833 N.am      1 <0>        -0.6380
     20 H2          5.7972   -6.8660   -0.0881 H         1 <0>         0.4398
     21 H3          1.0048    1.8381    0.0023 H         1 <0>         0.0806
     22 H4         -0.5450    1.8219   -0.8730 H         1 <0>         0.0639
     23 H5         -0.5280    1.8123    0.9069 H         1 <0>         0.0639
     24 H6          0.8486   -0.4776   -0.0086 H         1 <0>         0.3916
     25 H7         -1.9709   -2.5378    0.0072 H         1 <0>         0.4456
     26 H8          0.9184   -2.2289   -0.0187 H         1 <0>         0.4188
     27 H9          2.5779   -2.9984   -0.0287 H         1 <0>         0.1357
     28 H10         4.7226   -4.1923   -0.0557 H         1 <0>         0.1442
     29 H11         0.4847   -6.7446   -0.0388 H         1 <0>         0.1505
@<TRIPOS>BOND
     1    1    2 1
     2    1   21 1
     3    1   22 1
     4    1   23 1
     5    2    3 am
     6    2   24 1
     7    3    4 2
     8    3    5 am
     9    5    6 1
    10    5   25 1
    11    6    7 am
    12    6   26 1
    13    7    8 2
    14    7    9 1
    15    9   14 ar
    16    9   10 ar
    17   10   11 ar
    18   10   27 1
    19   11   12 ar
    20   11   28 1
    21   12   19 1
    22   12   13 ar
    23   13   14 ar
    24   13   15 1
    25   14   29 1
    26   15   16 1
    27   15   17 am
    28   17   18 2
    29   17   19 am
    30   19   20 1
@<TRIPOS>MOLECULE
ZINC19793789
   33    34     0     0     0
SMALL
USER_CHARGES

@<TRIPOS>ATOM
      1 C1          0.4520    1.3426   -0.2594 C.3       1 <0>        -0.1772
      2 C2          0.2811   -0.1524   -0.1770 C.2       1 <0>         0.5351
      3 O1          1.2542   -0.8761   -0.1986 O.2       1 <0>        -0.4943
      4 N1         -0.9530   -0.6853   -0.0793 N.am      1 <0>        -1.0563
      5 S1         -1.1407   -2.3281    0.0112 S.o2      1 <0>         2.6789
      6 O2         -2.5355   -2.5715    0.1314 O.2       1 <0>        -0.9427
      7 O3         -0.3577   -2.8847   -1.0359 O.2       1 <0>        -0.9287
      8 C3         -0.4056   -2.8539    1.5238 C.ar      1 <0>        -0.6957
      9 C4          0.9316   -3.2051    1.5555 C.ar      1 <0>         0.0230
     10 C5          1.5108   -3.6181    2.7393 C.ar      1 <0>        -0.1711
     11 C6          0.7487   -3.6801    3.8989 C.ar      1 <0>         0.2141
     12 C7         -0.5939   -3.3262    3.8636 C.ar      1 <0>        -0.1467
     13 C8         -1.1656   -2.9091    2.6777 C.ar      1 <0>         0.0019
     14 N2          1.3319   -4.0982    5.0990 N.am      1 <0>        -0.6728
     15 C9          0.6026   -4.7883    5.9981 C.2       1 <0>         0.5965
     16 O4         -0.5339   -5.1312    5.7259 O.2       1 <0>        -0.5184
     17 C10         1.1587   -5.1153    7.2613 C.2       1 <0>        -0.0658
     18 C11         0.4805   -5.7989    8.1791 C.2       1 <0>         0.1408
     19 N3          1.1246   -6.0564    9.3656 N.pl3     1 <0>        -0.7384
     20 S2          2.6313   -5.3528    9.1767 S.3       1 <0>         0.3809
     21 N4          2.4728   -4.7413    7.6259 N.pl3     1 <0>        -0.7762
     22 H1          1.5124    1.5836   -0.3328 H         1 <0>         0.1019
     23 H2         -0.0682    1.7198   -1.1399 H         1 <0>         0.1003
     24 H3          0.0352    1.8057    0.6350 H         1 <0>         0.0992
     25 H4         -1.7312   -0.1065   -0.0620 H         1 <0>         0.4361
     26 H5          1.5235   -3.1567    0.6535 H         1 <0>         0.1533
     27 H6          2.5549   -3.8929    2.7632 H         1 <0>         0.1379
     28 H7         -1.1892   -3.3733    4.7636 H         1 <0>         0.1464
     29 H8         -2.2086   -2.6300    2.6505 H         1 <0>         0.1456
     30 H9          2.2613   -3.8916    5.2845 H         1 <0>         0.4119
     31 H10        -0.5300   -6.1358    8.0002 H         1 <0>         0.1867
     32 H11         0.7836   -6.5360   10.1367 H         1 <0>         0.4525
     33 H12         3.1248   -4.2482    7.1039 H         1 <0>         0.4413
@<TRIPOS>BOND
     1    1    2 1
     2    1   22 1
     3    1   23 1
     4    1   24 1
     5    2    3 2
     6    2    4 am
     7    4    5 1
     8    4   25 1
     9    5    6 2
    10    5    7 2
    11    5    8 1
    12    8   13 ar
    13    8    9 ar
    14    9   10 ar
    15    9   26 1
    16   10   11 ar
    17   10   27 1
    18   11   12 ar
    19   11   14 1
    20   12   13 ar
    21   12   28 1
    22   13   29 1
    23   14   15 am
    24   14   30 1
    25   15   16 2
    26   15   17 1
    27   17   21 1
    28   17   18 2
    29   18   19 1
    30   18   31 1
    31   19   20 1
    32   19   32 1
    33   20   21 1
    34   21   33 1
@<TRIPOS>MOLECULE
ZINC23386332
   37    38     0     0     0
SMALL
USER_CHARGES

@<TRIPOS>ATOM
      1 C1         -0.0169    1.3935    0.0097 C.ar      1 <0>        -0.0314
      2 C2          1.1664    2.0964    0.0022 C.ar      1 <0>        -0.1347
      3 C3          2.3811    1.4169   -0.0135 C.ar      1 <0>         0.2738
      4 C4          2.4033    0.0247   -0.0217 C.ar      1 <0>        -0.0699
      5 C5          1.2238   -0.6837   -0.0142 C.ar      1 <0>         0.0085
      6 C6          0.0021   -0.0041    0.0020 C.ar      1 <0>        -0.1439
      7 C7         -1.2644   -0.7605    0.0105 C.2       1 <0>         0.5662
      8 O1         -1.2465   -1.9763    0.0038 O.2       1 <0>        -0.5258
      9 N1         -2.4414   -0.1040    0.0257 N.am      1 <0>        -0.8464
     10 N2          3.6972   -0.6940   -0.0389 N.pl3     1 <0>         0.0357
     11 O2          3.7173   -1.9028   -0.0460 O.2       1 <0>        -0.1714
     12 O3          4.7341   -0.0722   -0.0458 O.3       1 <0>        -0.1233
     13 N3          3.5749    2.1298   -0.0216 N.pl3     1 <0>        -0.6762
     14 C8          4.2019    2.5257   -1.2900 C.3       1 <0>         0.1421
     15 C9          4.4549    4.0364   -1.2646 C.3       1 <0>        -0.1320
     16 C10         5.2733    4.3916   -0.0211 C.3       1 <0>        -0.1080
     17 C11         4.4860    4.0126    1.2353 C.3       1 <0>        -0.1233
     18 H1          3.5326    4.5409    1.2404 H         1 <0>         0.0993
     19 C12         4.2301    2.5069    1.2383 C.3       1 <0>         0.1659
     20 C13         5.2784    4.3930    2.4594 C.2       1 <0>         0.5233
     21 O4          5.6070    3.5414    3.2579 O.2       1 <0>        -0.5381
     22 N4          5.6220    5.6797    2.6667 N.am      1 <0>        -0.8547
     23 H2         -0.9590    1.9213    0.0260 H         1 <0>         0.1467
     24 H3          1.1524    3.1763    0.0081 H         1 <0>         0.1537
     25 H4          1.2417   -1.7635   -0.0213 H         1 <0>         0.1670
     26 H5         -2.4557    0.8659    0.0311 H         1 <0>         0.4014
     27 H6         -3.2741   -0.6014    0.0313 H         1 <0>         0.4117
     28 H7          5.1484    1.9986   -1.4099 H         1 <0>         0.0709
     29 H8          3.5372    2.2804   -2.1183 H         1 <0>         0.0676
     30 H9          5.0062    4.3280   -2.1585 H         1 <0>         0.0791
     31 H10         3.5018    4.5645   -1.2359 H         1 <0>         0.0668
     32 H11         6.2157    3.8442   -0.0380 H         1 <0>         0.0748
     33 H12         5.4758    5.4626   -0.0134 H         1 <0>         0.0686
     34 H13         3.5841    2.2492    2.0775 H         1 <0>         0.0715
     35 H14         5.1790    1.9783    1.3292 H         1 <0>         0.0799
     36 H15         5.3591    6.3608    2.0280 H         1 <0>         0.4013
     37 H16         6.1320    5.9246    3.4546 H         1 <0>         0.4033
@<TRIPOS>BOND
     1    1    6 ar
     2    1    2 ar
     3    1   23 1
     4    2    3 ar
     5    2   24 1
     6    3    4 ar
     7    3   13 1
     8    4    5 ar
     9    4   10 1
    10    5    6 ar
    11    5   25 1
    12    6    7 1
    13    7    8 2
    14    7    9 am
    15    9   26 1
    16    9   27 1
    17   10   11 2
    18   10   12 1
    19   13   19 1
    20   13   14 1
    21   14   15 1
    22   14   28 1
    23   14   29 1
    24   15   16 1
    25   15   30 1
    26   15   31 1
    27   16   17 1
    28   16   32 1
    29   16   33 1
    30   17   18 1
    31   17   19 1
    32   17   20 1
    33   19   34 1
    34   19   35 1
    35   20   21 2
    36   20   22 am
    37   22   36 1
    38   22   37 1
@<TRIPOS>MOLECULE
ZINC03124186
   34    35     0     0     0
SMALL
USER_CHARGES
N-[(4-hydroxy-3-methoxy-phenyl)methyleneamino]-2,4-dioxo-1H-pyrimidine-5-carboxamide
@<TRIPOS>ATOM
      1 C1         -0.0227   -2.7016   -0.0848 C.3       1 <0>         0.0229
      2 O1          1.2392   -2.0311   -0.0803 O.3       1 <0>        -0.3063
      3 C2          1.2159   -0.6715   -0.0590 C.ar      1 <0>         0.0993
      4 C3          0.0070   -0.0012   -0.0428 C.ar      1 <0>        -0.1677
      5 C4         -0.0132    1.3957   -0.0204 C.ar      1 <0>        -0.0233
      6 C5          1.1887    2.1083   -0.0145 C.ar      1 <0>        -0.0974
      7 C6          2.3906    1.4326   -0.0312 C.ar      1 <0>        -0.1110
      8 C7          2.4103    0.0456   -0.0529 C.ar      1 <0>         0.0918
      9 O2          3.5980   -0.6155   -0.0688 O.3       1 <0>        -0.4860
     10 C8         -1.2994    2.1161   -0.0092 C.2       1 <0>         0.1089
     11 N1         -1.3163    3.4137    0.0115 N.2       1 <0>        -0.2232
     12 N2         -2.5386    4.0983    0.0222 N.am      1 <0>        -0.5726
     13 C9         -2.5562    5.4458    0.0437 C.2       1 <0>         0.6126
     14 O3         -1.5145    6.0662    0.1468 O.2       1 <0>        -0.5096
     15 C10        -3.8341    6.1661   -0.0573 C.2       1 <0>        -0.3278
     16 C11        -3.8675    7.5436   -0.1547 C.2       1 <0>         0.2697
     17 N3         -5.0667    8.1747   -0.2530 N.am      1 <0>        -0.6270
     18 H1         -5.0894    9.1712   -0.3331 H         1 <0>         0.4546
     19 C12        -6.2217    7.4908   -0.2450 C.2       1 <0>         0.6991
     20 O4         -7.2683    8.1032   -0.3299 O.2       1 <0>        -0.5222
     21 N4         -6.2584    6.1509   -0.1467 N.am      1 <0>        -0.6534
     22 H2         -7.1390    5.6770   -0.1442 H         1 <0>         0.4462
     23 C13        -5.1147    5.4406   -0.0514 C.2       1 <0>         0.5698
     24 O5         -5.1417    4.2274    0.0378 O.2       1 <0>        -0.5079
     25 H3         -0.5805   -2.4323    0.8121 H         1 <0>         0.0573
     26 H4         -0.5889   -2.4045   -0.9676 H         1 <0>         0.0568
     27 H5          0.1386   -3.7794   -0.1024 H         1 <0>         0.1027
     28 H6         -0.9196   -0.5560   -0.0471 H         1 <0>         0.1386
     29 H7          1.1763    3.1880    0.0024 H         1 <0>         0.1433
     30 H8          3.3190    1.9845   -0.0269 H         1 <0>         0.1419
     31 H9          3.9376   -0.7927   -0.9567 H         1 <0>         0.3898
     32 H10        -2.2276    1.5640   -0.0184 H         1 <0>         0.1224
     33 H11        -3.3723    3.6025    0.0140 H         1 <0>         0.4032
     34 H12        -2.9496    8.1128   -0.1579 H         1 <0>         0.2047
@<TRIPOS>BOND
     1    1    2 1
     2    1   25 1
     3    1   26 1
     4    1   27 1
     5    2    3 1
     6    3    8 ar
     7    3    4 ar
     8    4    5 ar
     9    4   28 1
    10    5    6 ar
    11    5   10 1
    12    6    7 ar
    13    6   29 1
    14    7    8 ar
    15    7   30 1
    16    8    9 1
    17    9   31 1
    18   10   11 2
    19   10   32 1
    20   11   12 1
    21   12   13 am
    22   12   33 1
    23   13   14 2
    24   13   15 1
    25   15   23 1
    26   15   16 2
    27   16   17 1
    28   16   34 1
    29   17   18 1
    30   17   19 am
    31   19   20 2
    32   19   21 am
    33   21   22 1
    34   21   23 am
    35   23   24 2
@<TRIPOS>MOLECULE
ZINC21585738
   41    43     0     0     0
SMALL
USER_CHARGES
2-[(4,6-diamino-1,3,5-triazin-2-yl)methyl]-4-methyl-2,4-diazaspiro[4.5]decane-1,3-dione
@<TRIPOS>ATOM
      1 C1         -3.5380    1.2052    4.3945 C.3       1 <0>         0.0913
      2 N1         -2.7511    1.8795    3.3590 N.am      1 <0>        -0.6141
      3 C2         -2.5883    1.4816    2.0826 C.2       1 <0>         0.6980
      4 O1         -3.0930    0.4785    1.6177 O.2       1 <0>        -0.5248
      5 N2         -1.8053    2.3132    1.3845 N.am      1 <0>        -0.5717
      6 C3         -1.3842    3.3496    2.1387 C.2       1 <0>         0.5298
      7 O2         -0.6706    4.2667    1.7930 O.2       1 <0>        -0.4461
      8 C4         -1.9891    3.1260    3.5058 C.3       1 <0>         0.1282
      9 C5         -2.9163    4.2799    3.8715 C.3       1 <0>        -0.1128
     10 C6         -3.5400    4.0213    5.2454 C.3       1 <0>        -0.1385
     11 C7         -2.4305    3.8857    6.2903 C.3       1 <0>        -0.1219
     12 C8         -1.5238    2.7093    5.9230 C.3       1 <0>        -0.1383
     13 C9         -0.8920    2.9623    4.5518 C.3       1 <0>        -0.1113
     14 C10        -1.4542    2.1247   -0.0252 C.3       1 <0>         0.1895
     15 C11        -0.1877    1.3140   -0.1234 C.ar      1 <0>         0.4057
     16 N3          0.9847    1.9234   -0.1467 N.ar      1 <0>        -0.6269
     17 C12         2.1054    1.2111   -0.2390 C.ar      1 <0>         0.6316
     18 N4          2.0442   -0.1143   -0.3077 N.ar      1 <0>        -0.6617
     19 C13         0.8637   -0.7233   -0.2840 C.ar      1 <0>         0.6314
     20 N5         -0.2526   -0.0041   -0.1916 N.ar      1 <0>        -0.6205
     21 N6          0.7949   -2.0997   -0.3555 N.pl3     1 <0>        -0.8299
     22 N7          3.3291    1.8484   -0.2632 N.pl3     1 <0>        -0.8305
     23 H1         -3.9904    0.2940    3.9761 H         1 <0>         0.0905
     24 H2         -4.3317    1.8792    4.7490 H         1 <0>         0.0849
     25 H3         -2.8826    0.9360    5.2360 H         1 <0>         0.0829
     26 H4         -2.3411    5.2170    3.9016 H         1 <0>         0.0898
     27 H5         -3.7133    4.3629    3.1179 H         1 <0>         0.0746
     28 H6         -4.1966    4.8619    5.5141 H         1 <0>         0.0734
     29 H7         -4.1284    3.0925    5.2120 H         1 <0>         0.0846
     30 H8         -1.8369    4.8114    6.3170 H         1 <0>         0.0665
     31 H9         -2.8780    3.7085    7.2794 H         1 <0>         0.0691
     32 H10        -0.7314    2.6071    6.6791 H         1 <0>         0.0719
     33 H11        -2.1187    1.7847    5.8881 H         1 <0>         0.0842
     34 H12        -0.2518    2.1097    4.2813 H         1 <0>         0.0684
     35 H13        -0.2846    3.8785    4.5926 H         1 <0>         0.0891
     36 H14        -2.2698    1.5943   -0.5384 H         1 <0>         0.1275
     37 H15        -1.2995    3.1054   -0.4989 H         1 <0>         0.1252
     38 H16        -0.1829   -2.6033   -0.3358 H         1 <0>         0.4425
     39 H17         1.7178   -2.6933   -0.4322 H         1 <0>         0.4382
     40 H18         4.2547    1.2590   -0.3395 H         1 <0>         0.4384
     41 H19         3.3789    2.9458   -0.2062 H         1 <0>         0.4419
@<TRIPOS>BOND
     1    1    2 1
     2    1   23 1
     3    1   24 1
     4    1   25 1
     5    2    8 1
     6    2    3 am
     7    3    4 2
     8    3    5 am
     9    5    6 am
    10    5   14 1
    11    6    7 2
    12    6    8 1
    13    8   13 1
    14    8    9 1
    15    9   10 1
    16    9   26 1
    17    9   27 1
    18   10   11 1
    19   10   28 1
    20   10   29 1
    21   11   12 1
    22   11   30 1
    23   11   31 1
    24   12   13 1
    25   12   32 1
    26   12   33 1
    27   13   34 1
    28   13   35 1
    29   14   15 1
    30   14   36 1
    31   14   37 1
    32   15   20 ar
    33   15   16 ar
    34   16   17 ar
    35   17   18 ar
    36   17   22 1
    37   18   19 ar
    38   19   20 ar
    39   19   21 1
    40   21   38 1
    41   21   39 1
    42   22   40 1
    43   22   41 1
@<TRIPOS>MOLECULE
ZINC46694912
   31    32     0     0     0
SMALL
USER_CHARGES

@<TRIPOS>ATOM
      1 C1          0.0980    1.6365    0.0351 C.3       1 <0>        -0.1647
      2 C2         -0.0521    0.1192   -0.0928 C.3       1 <0>         0.1475
      3 H1          0.3786   -0.3637    0.7844 H         1 <0>         0.1231
      4 C3          0.6661   -0.3541   -1.3302 C.2       1 <0>         0.5146
      5 O1          0.0516   -0.9225   -2.2080 O.2       1 <0>        -0.5113
      6 N1          1.9912   -0.1458   -1.4616 N.am      1 <0>        -0.6643
      7 C4          2.6790   -0.6813   -2.5579 C.ar      1 <0>         0.1680
      8 C5          3.7597    0.0033   -3.1017 C.ar      1 <0>        -0.1279
      9 C6          4.4417   -0.5197   -4.1819 C.ar      1 <0>        -0.0542
     10 C7          4.0496   -1.7320   -4.7285 C.ar      1 <0>         0.0217
     11 C8          2.9654   -2.4205   -4.1844 C.ar      1 <0>         0.0917
     12 C9          2.2849   -1.8972   -3.0968 C.ar      1 <0>        -0.1064
     13 N2          2.8154   -3.5857   -4.9360 N.am      1 <0>        -0.6461
     14 H2          2.1439   -4.2727   -4.8012 H         1 <0>         0.4450
     15 C10         3.7730   -3.5825   -5.8842 C.2       1 <0>         0.6403
     16 O2          3.9375   -4.4514   -6.7190 O.2       1 <0>        -0.4825
     17 O3          4.5171   -2.4721   -5.7646 O.3       1 <0>        -0.2334
     18 N3         -1.4728   -0.2244   -0.1912 N.am      1 <0>        -0.7317
     19 C11        -2.2086   -0.3757    0.9278 C.2       1 <0>         0.7111
     20 O4         -1.6932   -0.2270    2.0190 O.2       1 <0>        -0.5922
     21 N4         -3.5156   -0.6918    0.8373 N.am      1 <0>        -0.8632
     22 H3          1.1551    1.8921    0.1083 H         1 <0>         0.0738
     23 H4         -0.3327    2.1194   -0.8421 H         1 <0>         0.0667
     24 H5         -0.4214    1.9788    0.9301 H         1 <0>         0.0814
     25 H6          2.4685    0.3750   -0.7968 H         1 <0>         0.4199
     26 H7          4.0667    0.9479   -2.6777 H         1 <0>         0.1493
     27 H8          5.2806    0.0156   -4.6014 H         1 <0>         0.1503
     28 H9          1.4482   -2.4323   -2.6725 H         1 <0>         0.1483
     29 H10        -1.8839   -0.3430   -1.0617 H         1 <0>         0.4074
     30 H11        -3.9268   -0.8104   -0.0332 H         1 <0>         0.3994
     31 H12        -4.0452   -0.8007    1.6427 H         1 <0>         0.4183
@<TRIPOS>BOND
     1    1    2 1
     2    1   22 1
     3    1   23 1
     4    1   24 1
     5    2    3 1
     6    2    4 1
     7    2   18 1
     8    4    5 2
     9    4    6 am
    10    6    7 1
    11    6   25 1
    12    7   12 ar
    13    7    8 ar
    14    8    9 ar
    15    8   26 1
    16    9   10 ar
    17    9   27 1
    18   10   17 1
    19   10   11 ar
    20   11   12 ar
    21   11   13 1
    22   12   28 1
    23   13   14 1
    24   13   15 am
    25   15   16 2
    26   15   17 1
    27   18   19 am
    28   18   29 1
    29   19   20 2
    30   19   21 am
    31   21   30 1
    32   21   31 1
@<TRIPOS>MOLECULE
ZINC50212939
   39    40     0     0     0
SMALL
USER_CHARGES

@<TRIPOS>ATOM
      1 C1         -0.0240    1.5396   -0.0228 C.3       1 <0>        -0.1496
      2 C2          0.0088    0.0100   -0.0299 C.3       1 <0>        -0.1438
      3 C3         -1.4218   -0.5310    0.0085 C.3       1 <0>         0.1110
      4 N1         -1.3904   -1.9957    0.0017 N.am      1 <0>        -0.5314
      5 C4         -1.4038   -2.6749   -1.1954 C.2       1 <0>         0.3834
      6 C5         -1.3737   -4.0430   -1.1909 C.2       1 <0>        -0.0545
      7 C6         -1.3298   -4.7202    0.0410 C.2       1 <0>         0.5718
      8 O1         -1.3020   -5.9392    0.0704 O.2       1 <0>        -0.5171
      9 N2         -1.3182   -4.0140    1.1886 N.am      1 <0>        -0.6561
     10 H1         -1.2876   -4.4796    2.0390 H         1 <0>         0.4322
     11 C7         -1.3430   -2.6692    1.1657 C.2       1 <0>         0.7047
     12 O2         -1.3271   -2.0524    2.2137 O.2       1 <0>        -0.5442
     13 N3         -1.3871   -4.7651   -2.4068 N.pl3     1 <0>        -0.7186
     14 C8         -1.2561   -6.2242   -2.3936 C.3       1 <0>         0.1516
     15 H2         -1.8429   -6.6330   -1.5710 H         1 <0>         0.1351
     16 C9         -1.7719   -6.7930   -3.7179 C.3       1 <0>        -0.1316
     17 C10        -1.3764   -8.2724   -3.7967 C.3       1 <0>        -0.1336
     18 C11         0.1449   -8.3667   -3.9203 C.3       1 <0>         0.1093
     19 N4          0.7912   -7.5703   -2.8848 N.am      1 <0>        -0.7276
     20 C12         0.1876   -6.5938   -2.2085 C.2       1 <0>         0.5053
     21 O3          0.8403   -5.9706   -1.3983 O.2       1 <0>        -0.5362
     22 N5         -1.4475   -1.9848   -2.3852 N.pl3     1 <0>        -0.8469
     23 H3          0.9952    1.9250   -0.0501 H         1 <0>         0.0629
     24 H4         -0.5705    1.8953   -0.8963 H         1 <0>         0.0573
     25 H5         -0.5201    1.8882    0.8830 H         1 <0>         0.0613
     26 H6          0.5049   -0.3386   -0.9357 H         1 <0>         0.0675
     27 H7          0.5553   -0.3458    0.8436 H         1 <0>         0.0749
     28 H8         -1.9179   -0.1824    0.9143 H         1 <0>         0.1078
     29 H9         -1.9683   -0.1753   -0.8650 H         1 <0>         0.0894
     30 H10        -1.4830   -4.2944   -3.2494 H         1 <0>         0.3935
     31 H11        -2.8571   -6.7005   -3.7591 H         1 <0>         0.0822
     32 H12        -1.3249   -6.2488   -4.5498 H         1 <0>         0.0706
     33 H13        -1.7024   -8.7868   -2.8926 H         1 <0>         0.0774
     34 H14        -1.8433   -8.7298   -4.6690 H         1 <0>         0.0892
     35 H15         0.4508   -9.4079   -3.8176 H         1 <0>         0.0763
     36 H16         0.4501   -7.9997   -4.9003 H         1 <0>         0.0635
     37 H17         1.7187   -7.7627   -2.6758 H         1 <0>         0.3950
     38 H18        -1.4690   -1.0151   -2.3830 H         1 <0>         0.4041
     39 H19        -1.4567   -2.4682   -3.2261 H         1 <0>         0.4139
@<TRIPOS>BOND
     1    1    2 1
     2    1   23 1
     3    1   24 1
     4    1   25 1
     5    2    3 1
     6    2   26 1
     7    2   27 1
     8    3    4 1
     9    3   28 1
    10    3   29 1
    11    4   11 am
    12    4    5 1
    13    5    6 2
    14    5   22 1
    15    6    7 1
    16    6   13 1
    17    7    8 2
    18    7    9 am
    19    9   10 1
    20    9   11 am
    21   11   12 2
    22   13   14 1
    23   13   30 1
    24   14   15 1
    25   14   20 1
    26   14   16 1
    27   16   17 1
    28   16   31 1
    29   16   32 1
    30   17   18 1
    31   17   33 1
    32   17   34 1
    33   18   19 1
    34   18   35 1
    35   18   36 1
    36   19   20 am
    37   19   37 1
    38   20   21 2
    39   22   38 1
    40   22   39 1
@<TRIPOS>MOLECULE
ZINC61888050
   39    40     0     0     0
SMALL
USER_CHARGES

@<TRIPOS>ATOM
      1 C1         -0.0184    1.5028    0.0103 C.3       1 <0>        -0.1399
      2 C2          0.0021   -0.0041    0.0020 C.2       1 <0>         0.2205
      3 C3          0.0079   -0.7958   -1.0953 C.2       1 <0>        -0.8232
      4 C4          0.0284   -2.1267   -0.6656 C.2       1 <0>         0.1741
      5 N1          0.0347   -2.1338    0.6427 N.2       1 <0>        -0.2887
      6 N2          0.0237   -0.8054    1.0876 N.pl3     1 <0>        -0.4620
      7 H1          0.0286   -0.5133    2.0125 H         1 <0>         0.4415
      8 C5          0.0404   -3.3426   -1.5559 C.3       1 <0>        -0.1152
      9 S1         -0.0081   -0.2472   -2.7696 S.o2      1 <0>         2.7251
     10 O1         -0.5477   -1.3118   -3.5407 O.2       1 <0>        -0.9510
     11 O2         -0.5775    1.0548   -2.7649 O.2       1 <0>        -0.9650
     12 N3          1.5692   -0.0722   -3.2427 N.pl3     1 <0>        -1.1128
     13 C6          2.4438   -1.2447   -3.3241 C.3       1 <0>         0.1556
     14 H2          2.0758   -2.0312   -2.6653 H         1 <0>         0.1131
     15 C7          2.5050   -1.7584   -4.7775 C.3       1 <0>        -0.1378
     16 C8          3.7820   -1.1023   -5.3588 C.3       1 <0>        -0.1241
     17 C9          4.7656   -1.1505   -4.1633 C.3       1 <0>        -0.1142
     18 C10         3.8809   -0.8585   -2.9324 C.3       1 <0>        -0.0410
     19 H3          3.9276    0.2012   -2.6817 H         1 <0>         0.1054
     20 C11         4.3367   -1.6876   -1.7594 C.2       1 <0>         0.3731
     21 N4          3.8048   -2.8443   -1.5405 N.2       1 <0>        -0.4193
     22 O3          4.2331   -3.6234   -0.4384 O.3       1 <0>        -0.4259
     23 N5          5.3204   -1.2122   -0.9209 N.pl3     1 <0>        -0.8706
     24 H4          1.0042    1.8801    0.0026 H         1 <0>         0.0950
     25 H5         -0.5455    1.8639   -0.8728 H         1 <0>         0.1267
     26 H6         -0.5286    1.8543    0.9071 H         1 <0>         0.0858
     27 H7          1.0708   -3.6217   -1.7759 H         1 <0>         0.0930
     28 H8         -0.4595   -4.1685   -1.0497 H         1 <0>         0.0823
     29 H9         -0.4815   -3.1172   -2.4858 H         1 <0>         0.1119
     30 H10         1.9140    0.8065   -3.4658 H         1 <0>         0.4163
     31 H11         2.5926   -2.8447   -4.7947 H         1 <0>         0.0838
     32 H12         1.6242   -1.4368   -5.3331 H         1 <0>         0.0843
     33 H13         4.1659   -1.6815   -6.1985 H         1 <0>         0.0754
     34 H14         3.5859   -0.0721   -5.6563 H         1 <0>         0.0724
     35 H15         5.2183   -2.1387   -4.0814 H         1 <0>         0.0767
     36 H16         5.5345   -0.3854   -4.2707 H         1 <0>         0.0762
     37 H17         3.7778   -4.4725   -0.3563 H         1 <0>         0.3996
     38 H18         5.7198   -0.3437   -1.0853 H         1 <0>         0.3960
     39 H19         5.6138   -1.7459   -0.1659 H         1 <0>         0.4070
@<TRIPOS>BOND
     1    1    2 1
     2    1   24 1
     3    1   25 1
     4    1   26 1
     5    2    6 1
     6    2    3 2
     7    3    4 1
     8    3    9 1
     9    4    5 2
    10    4    8 1
    11    5    6 1
    12    6    7 1
    13    8   27 1
    14    8   28 1
    15    8   29 1
    16    9   10 2
    17    9   11 2
    18    9   12 1
    19   12   13 1
    20   12   30 1
    21   13   14 1
    22   13   18 1
    23   13   15 1
    24   15   16 1
    25   15   31 1
    26   15   32 1
    27   16   17 1
    28   16   33 1
    29   16   34 1
    30   17   18 1
    31   17   35 1
    32   17   36 1
    33   18   19 1
    34   18   20 1
    35   20   21 2
    36   20   23 1
    37   21   22 1
    38   22   37 1
    39   23   38 1
    40   23   39 1
@<TRIPOS>MOLECULE
ZINC13582171
   40    42     0     0     0
SMALL
USER_CHARGES
N-[3-[(2,3-dioxo-1,4-dihydroquinoxalin-6-yl)sulfonylamino]phenyl]acetamide
@<TRIPOS>ATOM
      1 C1          4.2332   -5.9618   -6.5135 C.3       1 <0>        -0.1715
      2 C2          3.6988   -4.9132   -5.5723 C.2       1 <0>         0.5107
      3 O1          2.5102   -4.8582   -5.3375 O.2       1 <0>        -0.5232
      4 N1          4.5417   -4.0365   -4.9914 N.am      1 <0>        -0.6759
      5 C3          4.0630   -3.1345   -4.0348 C.ar      1 <0>         0.1616
      6 C4          4.6182   -1.8645   -3.9372 C.ar      1 <0>        -0.1505
      7 C5          4.1464   -0.9733   -2.9931 C.ar      1 <0>        -0.0750
      8 C6          3.1170   -1.3391   -2.1470 C.ar      1 <0>        -0.1676
      9 C7          2.5611   -2.6093   -2.2358 C.ar      1 <0>         0.1593
     10 C8          3.0334   -3.5072   -3.1832 C.ar      1 <0>        -0.1307
     11 N2          1.5242   -2.9804   -1.3767 N.pl3     1 <0>        -1.0534
     12 S1          1.6372   -2.6601    0.2441 S.o2      1 <0>         2.6946
     13 O2          0.4910   -3.2385    0.8532 O.2       1 <0>        -0.9451
     14 O3          1.9486   -1.2789    0.3644 O.2       1 <0>        -0.9387
     15 C9          3.0328   -3.5461    0.8541 C.ar      1 <0>        -0.6683
     16 C10         4.2951   -2.9815    0.7787 C.ar      1 <0>         0.0004
     17 C11         5.3931   -3.6685    1.2540 C.ar      1 <0>        -0.1379
     18 C12         5.2353   -4.9326    1.8116 C.ar      1 <0>         0.1788
     19 C13         3.9629   -5.5013    1.8885 C.ar      1 <0>         0.0969
     20 C14         2.8638   -4.7994    1.4056 C.ar      1 <0>        -0.0129
     21 N3          3.7843   -6.7652    2.4439 N.am      1 <0>        -0.6335
     22 H1          2.8960   -7.1516    2.4927 H         1 <0>         0.4271
     23 C15         4.8445   -7.4528    2.9145 C.2       1 <0>         0.5090
     24 O4          4.6938   -8.5561    3.3997 O.2       1 <0>        -0.4587
     25 C16         6.2041   -6.8450    2.8329 C.2       1 <0>         0.5104
     26 O5          7.1719   -7.4483    3.2509 O.2       1 <0>        -0.4539
     27 N4          6.3479   -5.6191    2.2899 N.am      1 <0>        -0.6360
     28 H2          7.2279   -5.2150    2.2324 H         1 <0>         0.4271
     29 H3          5.3146   -5.8555   -6.5996 H         1 <0>         0.0795
     30 H4          3.9951   -6.9526   -6.1266 H         1 <0>         0.1006
     31 H5          3.7765   -5.8356   -7.4951 H         1 <0>         0.1006
     32 H6          5.4802   -4.0308   -5.2366 H         1 <0>         0.4141
     33 H7          5.4199   -1.5739   -4.6001 H         1 <0>         0.1302
     34 H8          4.5799    0.0131   -2.9192 H         1 <0>         0.1373
     35 H9          2.7473   -0.6385   -1.4129 H         1 <0>         0.1588
     36 H10         2.6000   -4.4936   -3.2573 H         1 <0>         0.1403
     37 H11         0.7379   -3.4256   -1.7295 H         1 <0>         0.4308
     38 H12         4.4204   -1.9997    0.3465 H         1 <0>         0.1539
     39 H13         6.3762   -3.2261    1.1890 H         1 <0>         0.1522
     40 H14         1.8774   -5.2354    1.4626 H         1 <0>         0.1585
@<TRIPOS>BOND
     1    1    2 1
     2    1   29 1
     3    1   30 1
     4    1   31 1
     5    2    3 2
     6    2    4 am
     7    4    5 1
     8    4   32 1
     9    5   10 ar
    10    5    6 ar
    11    6    7 ar
    12    6   33 1
    13    7    8 ar
    14    7   34 1
    15    8    9 ar
    16    8   35 1
    17    9   10 ar
    18    9   11 1
    19   10   36 1
    20   11   12 1
    21   11   37 1
    22   12   13 2
    23   12   14 2
    24   12   15 1
    25   15   20 ar
    26   15   16 ar
    27   16   17 ar
    28   16   38 1
    29   17   18 ar
    30   17   39 1
    31   18   27 1
    32   18   19 ar
    33   19   20 ar
    34   19   21 1
    35   20   40 1
    36   21   22 1
    37   21   23 am
    38   23   24 2
    39   23   25 1
    40   25   26 2
    41   25   27 am
    42   27   28 1
@<TRIPOS>MOLECULE
ZINC50674154
   34    34     0     0     0
SMALL
USER_CHARGES

@<TRIPOS>ATOM
      1 C1         -0.8874    1.5594   -1.3437 C.3       1 <0>         0.0842
      2 N1         -0.7572    0.1147   -1.1389 N.am      1 <0>        -0.7333
      3 C2         -0.0182   -0.6229   -1.9912 C.2       1 <0>         0.5145
      4 O1          0.5391   -0.0905   -2.9276 O.2       1 <0>        -0.5364
      5 C3          0.1157   -2.1091   -1.7805 C.3       1 <0>        -0.1501
      6 C4          1.0003   -2.7022   -2.8789 C.3       1 <0>         0.1230
      7 N2          1.1305   -4.1470   -2.6741 N.pl3     1 <0>        -1.1155
      8 S1          1.7100   -5.1071   -3.8926 S.o2      1 <0>         2.7023
      9 O2          1.7419   -6.4336   -3.3841 O.2       1 <0>        -0.9302
     10 O3          0.9860   -4.7576   -5.0643 O.2       1 <0>        -0.9440
     11 C5          3.3840   -4.6359   -4.1757 C.ar      1 <0>        -0.7746
     12 C6          3.6714   -3.5329   -4.9694 C.ar      1 <0>         0.3471
     13 C7          4.9924   -3.1643   -5.1898 C.ar      1 <0>        -0.1604
     14 C8          6.0170   -3.8947   -4.6198 C.ar      1 <0>         0.0811
     15 C9          5.7299   -4.9922   -3.8301 C.ar      1 <0>        -0.1835
     16 C10         4.4137   -5.3603   -3.6032 C.ar      1 <0>         0.2582
     17 F1          4.1360   -6.4301   -2.8264 F         1 <0>        -0.0904
     18 N3          7.4243   -3.5017   -4.8555 N.pl3     1 <0>         0.0220
     19 O4          7.6765   -2.5422   -5.5464 O.2       1 <0>        -0.1351
     20 O5          8.3218   -4.1403   -4.3570 O.3       1 <0>        -0.1329
     21 N4          2.6340   -2.7960   -5.5452 N.pl3     1 <0>        -0.8398
     22 H1          0.0988    2.0221   -1.3054 H         1 <0>         0.0620
     23 H2         -1.3402    1.7491   -2.3169 H         1 <0>         0.0625
     24 H3         -1.5176    1.9820   -0.5612 H         1 <0>         0.0784
     25 H4         -1.2030   -0.3111   -0.3899 H         1 <0>         0.4048
     26 H5          0.5684   -2.2987   -0.8073 H         1 <0>         0.1077
     27 H6         -0.8705   -2.5717   -1.8188 H         1 <0>         0.1097
     28 H7          0.5475   -2.5125   -3.8521 H         1 <0>         0.0878
     29 H8          1.9865   -2.2395   -2.8406 H         1 <0>         0.0784
     30 H9          0.8772   -4.5412   -1.8248 H         1 <0>         0.4255
     31 H10         5.2183   -2.3073   -5.8069 H         1 <0>         0.1697
     32 H11         6.5330   -5.5615   -3.3860 H         1 <0>         0.1732
     33 H12         1.7167   -2.9555   -5.2732 H         1 <0>         0.4145
     34 H13         2.8308   -2.1247   -6.2172 H         1 <0>         0.4192
@<TRIPOS>BOND
     1    1    2 1
     2    1   22 1
     3    1   23 1
     4    1   24 1
     5    2    3 am
     6    2   25 1
     7    3    4 2
     8    3    5 1
     9    5    6 1
    10    5   26 1
    11    5   27 1
    12    6    7 1
    13    6   28 1
    14    6   29 1
    15    7    8 1
    16    7   30 1
    17    8    9 2
    18    8   10 2
    19    8   11 1
    20   11   16 ar
    21   11   12 ar
    22   12   13 ar
    23   12   21 1
    24   13   14 ar
    25   13   31 1
    26   14   15 ar
    27   14   18 1
    28   15   16 ar
    29   15   32 1
    30   16   17 1
    31   18   19 2
    32   18   20 1
    33   21   33 1
    34   21   34 1
@<TRIPOS>MOLECULE
ZINC23468564
   50    50     0     0     0
SMALL
USER_CHARGES

@<TRIPOS>ATOM
      1 C1         -0.0187    1.5258    0.0104 C.3       1 <0>        -0.1658
      2 C2          0.0021   -0.0041    0.0020 C.3       1 <0>         0.1289
      3 N1          0.6878   -0.4765   -1.2033 N.am      1 <0>        -0.7393
      4 C3          0.8268   -1.7986   -1.4250 C.2       1 <0>         0.6925
      5 O1          0.3834   -2.5989   -0.6250 O.2       1 <0>        -0.5294
      6 N2          1.4577   -2.2333   -2.5339 N.am      1 <0>        -0.6939
      7 C4          1.5967   -3.5554   -2.7556 C.2       1 <0>         0.5157
      8 O2          1.1544   -4.3537   -1.9576 O.2       1 <0>        -0.4465
      9 C5          2.3021   -4.0414   -3.9955 C.3       1 <0>         0.0394
     10 N3          2.3220   -5.5102   -4.0036 N.3       1 <0>        -0.5257
     11 C6          3.1499   -6.0317   -2.9071 C.3       1 <0>         0.0513
     12 C7          3.0806   -7.5607   -2.9018 C.3       1 <0>         0.0615
     13 N4          3.5447   -8.0739   -4.1983 N.3       1 <0>        -0.5257
     14 C8          2.7168   -7.5524   -5.2948 C.3       1 <0>         0.0513
     15 C9          2.7860   -6.0235   -5.3001 C.3       1 <0>         0.0616
     16 C10         3.5646   -9.5428   -4.2064 C.3       1 <0>         0.0393
     17 C11         4.2699  -10.0288   -5.4463 C.2       1 <0>         0.5157
     18 O3          4.7123   -9.2305   -6.2443 O.2       1 <0>        -0.4465
     19 N5          4.4090  -11.3509   -5.6680 N.am      1 <0>        -0.6939
     20 C12         5.0398  -11.7855   -6.7769 C.2       1 <0>         0.6925
     21 O4          5.4833  -10.9853   -7.5769 O.2       1 <0>        -0.5294
     22 N6          5.1789  -13.1077   -6.9986 N.am      1 <0>        -0.7394
     23 C13         5.8646  -13.5801   -8.2039 C.3       1 <0>         0.1289
     24 C14         5.8854  -15.1099   -8.2123 C.3       1 <0>        -0.1658
     25 H1          1.0039    1.9031    0.0027 H         1 <0>         0.0628
     26 H2         -0.5459    1.8868   -0.8726 H         1 <0>         0.0629
     27 H3         -0.5289    1.8773    0.9072 H         1 <0>         0.0781
     28 H4          0.5293   -0.3651    0.8851 H         1 <0>         0.0697
     29 H5         -1.0205   -0.3814    0.0098 H         1 <0>         0.0699
     30 H6          1.0417    0.1622   -1.8418 H         1 <0>         0.3986
     31 H7          1.8116   -1.5946   -3.1724 H         1 <0>         0.4091
     32 H8          1.7749   -3.6803   -4.8786 H         1 <0>         0.1124
     33 H9          3.3247   -3.6641   -4.0032 H         1 <0>         0.0732
     34 H10         4.1832   -5.7150   -3.0492 H         1 <0>         0.0426
     35 H11         2.7789   -5.6476   -1.9569 H         1 <0>         0.0985
     36 H12         3.7169   -7.9508   -2.1075 H         1 <0>         0.0836
     37 H13         2.0515   -7.8775   -2.7325 H         1 <0>         0.0501
     38 H14         3.0878   -7.9366   -6.2450 H         1 <0>         0.0985
     39 H15         1.6835   -7.8692   -5.1527 H         1 <0>         0.0426
     40 H16         2.1497   -5.6334   -6.0944 H         1 <0>         0.0836
     41 H17         3.8151   -5.7067   -5.4694 H         1 <0>         0.0500
     42 H18         4.0918   -9.9039   -3.3233 H         1 <0>         0.1124
     43 H19         2.5420   -9.9201   -4.1987 H         1 <0>         0.0732
     44 H20         4.0551  -11.9896   -5.0295 H         1 <0>         0.4091
     45 H21         4.8249  -13.7464   -6.3601 H         1 <0>         0.3985
     46 H22         5.3374  -13.2190   -9.0870 H         1 <0>         0.0697
     47 H23         6.8872  -13.2028   -8.2116 H         1 <0>         0.0699
     48 H24         6.4125  -15.4710   -7.3293 H         1 <0>         0.0629
     49 H25         4.8628  -15.4872   -8.2046 H         1 <0>         0.0627
     50 H26         6.3955  -15.4615   -9.1091 H         1 <0>         0.0781
@<TRIPOS>BOND
     1    1    2 1
     2    1   25 1
     3    1   26 1
     4    1   27 1
     5    2    3 1
     6    2   28 1
     7    2   29 1
     8    3    4 am
     9    3   30 1
    10    4    5 2
    11    4    6 am
    12    6    7 am
    13    6   31 1
    14    7    8 2
    15    7    9 1
    16    9   10 1
    17    9   32 1
    18    9   33 1
    19   10   15 1
    20   10   11 1
    21   11   12 1
    22   11   34 1
    23   11   35 1
    24   12   13 1
    25   12   36 1
    26   12   37 1
    27   13   14 1
    28   13   16 1
    29   14   15 1
    30   14   38 1
    31   14   39 1
    32   15   40 1
    33   15   41 1
    34   16   17 1
    35   16   42 1
    36   16   43 1
    37   17   18 2
    38   17   19 am
    39   19   20 am
    40   19   44 1
    41   20   21 2
    42   20   22 am
    43   22   23 1
    44   22   45 1
    45   23   24 1
    46   23   46 1
    47   23   47 1
    48   24   48 1
    49   24   49 1
    50   24   50 1
@<TRIPOS>MOLECULE
ZINC63329353
   51    53     0     0     0
SMALL
USER_CHARGES

@<TRIPOS>ATOM
      1 C1         -0.0178    1.4608    0.0101 C.3       1 <0>         0.0848
      2 N1          0.0021   -0.0041    0.0020 N.am      1 <0>        -0.7363
      3 C2         -1.1558   -0.6938    0.0094 C.2       1 <0>         0.5126
      4 O1         -2.2142   -0.1017    0.0227 O.2       1 <0>        -0.5337
      5 C3         -1.1354   -2.2006    0.0011 C.3       1 <0>        -0.1086
      6 C4         -0.4192   -2.6940   -1.2577 C.3       1 <0>        -0.1112
      7 C5         -0.3985   -4.2239   -1.2661 C.3       1 <0>        -0.1276
      8 C6         -1.8339   -4.7534   -1.2553 C.3       1 <0>         0.1607
      9 C7         -2.5500   -4.2600    0.0035 C.3       1 <0>        -0.1343
     10 C8         -2.5708   -2.7302    0.0119 C.3       1 <0>        -0.0976
     11 N2         -2.5424   -4.2681   -2.4421 N.am      1 <0>        -0.7366
     12 C9         -3.5946   -4.9566   -2.9273 C.2       1 <0>         0.7148
     13 O2         -3.9558   -5.9805   -2.3800 O.2       1 <0>        -0.5652
     14 N3         -4.2465   -4.5101   -4.0192 N.am      1 <0>        -0.5291
     15 N4         -3.8303   -3.3304   -4.6499 N.am      1 <0>        -0.5266
     16 C10        -4.4822   -2.8839   -5.7418 C.2       1 <0>         0.5696
     17 O3         -5.4314   -3.5050   -6.1795 O.2       1 <0>        -0.5221
     18 C11        -4.0437   -1.6409   -6.4063 C.ar      1 <0>        -0.1291
     19 C12        -2.9498   -0.9287   -5.9085 C.ar      1 <0>        -0.0800
     20 C13        -2.5436    0.2311   -6.5301 C.ar      1 <0>        -0.1173
     21 C14        -3.2175    0.6974   -7.6529 C.ar      1 <0>         0.0843
     22 C15        -4.3072   -0.0091   -8.1556 C.ar      1 <0>         0.0457
     23 C16        -4.7178   -1.1763   -7.5380 C.ar      1 <0>        -0.0449
     24 O4         -4.9729    0.4301   -9.2589 O.3       1 <0>        -0.3017
     25 C17        -4.7639    1.7956   -9.6353 C.3       1 <0>         0.0189
     26 C18        -3.2571    2.0825   -9.5841 C.3       1 <0>         0.0182
     27 O5         -2.8009    1.8469   -8.2478 O.3       1 <0>        -0.3015
     28 H1          1.0048    1.8381    0.0023 H         1 <0>         0.0758
     29 H2         -0.5450    1.8219   -0.8730 H         1 <0>         0.0601
     30 H3         -0.5280    1.8123    0.9069 H         1 <0>         0.0599
     31 H4          0.8486   -0.4776   -0.0086 H         1 <0>         0.4017
     32 H5         -0.6082   -2.5617    0.8841 H         1 <0>         0.1021
     33 H6         -0.9464   -2.3329   -2.1408 H         1 <0>         0.0620
     34 H7          0.6033   -2.3167   -1.2655 H         1 <0>         0.0749
     35 H8          0.1117   -4.5754   -2.1629 H         1 <0>         0.0776
     36 H9          0.1287   -4.5849   -0.3831 H         1 <0>         0.0882
     37 H10        -1.8191   -5.8433   -1.2613 H         1 <0>         0.0970
     38 H11        -3.5726   -4.6373    0.0113 H         1 <0>         0.0764
     39 H12        -2.0228   -4.6211    0.8866 H         1 <0>         0.0772
     40 H13        -3.0810   -2.3787    0.9087 H         1 <0>         0.0724
     41 H14        -3.0980   -2.3691   -0.8711 H         1 <0>         0.0682
     42 H15        -2.2543   -3.4513   -2.8788 H         1 <0>         0.3879
     43 H16        -5.0037   -5.0057   -4.3684 H         1 <0>         0.4450
     44 H17        -3.0731   -2.8349   -4.3007 H         1 <0>         0.4172
     45 H18        -2.4231   -1.2874   -5.0365 H         1 <0>         0.1317
     46 H19        -1.6982    0.7809   -6.1434 H         1 <0>         0.1453
     47 H20        -5.5616   -1.7261   -7.9280 H         1 <0>         0.1528
     48 H21        -5.1350    1.9590  -10.6470 H         1 <0>         0.1278
     49 H22        -5.2871    2.4526   -8.9406 H         1 <0>         0.0818
     50 H23        -2.7332    1.4204  -10.2734 H         1 <0>         0.0830
     51 H24        -3.0712    3.1210   -9.8582 H         1 <0>         0.1279
@<TRIPOS>BOND
     1    1    2 1
     2    1   28 1
     3    1   29 1
     4    1   30 1
     5    2    3 am
     6    2   31 1
     7    3    4 2
     8    3    5 1
     9    5   10 1
    10    5    6 1
    11    5   32 1
    12    6    7 1
    13    6   33 1
    14    6   34 1
    15    7    8 1
    16    7   35 1
    17    7   36 1
    18    8    9 1
    19    8   11 1
    20    8   37 1
    21    9   10 1
    22    9   38 1
    23    9   39 1
    24   10   40 1
    25   10   41 1
    26   11   12 am
    27   11   42 1
    28   12   13 2
    29   12   14 am
    30   14   15 1
    31   14   43 1
    32   15   16 am
    33   15   44 1
    34   16   17 2
    35   16   18 1
    36   18   23 ar
    37   18   19 ar
    38   19   20 ar
    39   19   45 1
    40   20   21 ar
    41   20   46 1
    42   21   27 1
    43   21   22 ar
    44   22   23 ar
    45   22   24 1
    46   23   47 1
    47   24   25 1
    48   25   26 1
    49   25   48 1
    50   25   49 1
    51   26   27 1
    52   26   50 1
    53   26   51 1
@<TRIPOS>MOLECULE
ZINC66320156
   42    43     0     0     0
SMALL
USER_CHARGES

@<TRIPOS>ATOM
      1 C1          2.7847   -1.3812    7.3333 C.3       1 <0>        -0.0797
      2 C2          2.4616   -2.5276    6.4101 C.2       1 <0>         0.2881
      3 N1          2.9362   -3.7819    6.5154 N.pl3     1 <0>        -0.4806
      4 H1          3.5445   -4.1172    7.1925 H         1 <0>         0.4428
      5 N2          2.3777   -4.5106    5.4528 N.2       1 <0>        -0.2985
      6 C3          1.6153   -3.6758    4.7813 C.2       1 <0>         0.2691
      7 N3          1.6679   -2.4750    5.3733 N.2       1 <0>        -0.5309
      8 C4          0.8228   -4.0099    3.5717 C.ar      1 <0>         0.0028
      9 C5          0.0560   -3.0286    2.9457 C.ar      1 <0>        -0.0863
     10 C6         -0.6809   -3.3409    1.8210 C.ar      1 <0>        -0.1028
     11 C7         -0.6615   -4.6258    1.3119 C.ar      1 <0>        -0.1253
     12 C8          0.1000   -5.6101    1.9294 C.ar      1 <0>         0.1368
     13 C9          0.8480   -5.3026    3.0561 C.ar      1 <0>        -0.0853
     14 N4          0.1168   -6.9099    1.4113 N.am      1 <0>        -0.6667
     15 C10         0.2376   -7.9648    2.2416 C.2       1 <0>         0.5082
     16 O1          0.2354   -7.7947    3.4424 O.2       1 <0>        -0.5091
     17 C11         0.3753   -9.3555    1.6778 C.3       1 <0>         0.1026
     18 N5          0.4900  -10.3185    2.7759 N.am      1 <0>        -0.7147
     19 C12         0.6235  -11.6327    2.5085 C.2       1 <0>         0.5162
     20 O2          0.6488  -12.0181    1.3589 O.2       1 <0>        -0.5353
     21 C13         0.7415  -12.6232    3.6381 C.3       1 <0>         0.0996
     22 N6          0.8754  -13.9752    3.0900 N.am      1 <0>        -0.7219
     23 C14         0.9961  -15.0300    3.9202 C.2       1 <0>         0.5138
     24 O3          0.9939  -14.8599    5.1211 O.2       1 <0>        -0.5458
     25 C15         1.1338  -16.4208    3.3565 C.3       1 <0>        -0.1715
     26 H2          2.0659   -1.3606    8.1524 H         1 <0>         0.0946
     27 H3          3.7897   -1.5104    7.7351 H         1 <0>         0.0852
     28 H4          2.7323   -0.4434    6.7803 H         1 <0>         0.1006
     29 H5          0.0381   -2.0236    3.3409 H         1 <0>         0.1390
     30 H6         -1.2747   -2.5792    1.3377 H         1 <0>         0.1362
     31 H7         -1.2401   -4.8652    0.4319 H         1 <0>         0.1317
     32 H8          1.4444   -6.0651    3.5349 H         1 <0>         0.1437
     33 H9          0.0416   -7.0518    0.4547 H         1 <0>         0.4166
     34 H10        -0.5026   -9.5925    1.0768 H         1 <0>         0.1069
     35 H11         1.2676   -9.4080    1.0539 H         1 <0>         0.1079
     36 H12         0.4697  -10.0102    3.6954 H         1 <0>         0.4173
     37 H13         1.6194  -12.3862    4.2390 H         1 <0>         0.1030
     38 H14        -0.1508  -12.5708    4.2620 H         1 <0>         0.1033
     39 H15         0.8771  -14.1112    2.1296 H         1 <0>         0.4133
     40 H16         2.1891  -16.6495    3.2073 H         1 <0>         0.0965
     41 H17         0.7011  -17.1395    4.0524 H         1 <0>         0.0963
     42 H18         0.6109  -16.4793    2.4019 H         1 <0>         0.0824
@<TRIPOS>BOND
     1    1    2 1
     2    1   26 1
     3    1   27 1
     4    1   28 1
     5    2    7 2
     6    2    3 1
     7    3    4 1
     8    3    5 1
     9    5    6 2
    10    6    7 1
    11    6    8 1
    12    8   13 ar
    13    8    9 ar
    14    9   10 ar
    15    9   29 1
    16   10   11 ar
    17   10   30 1
    18   11   12 ar
    19   11   31 1
    20   12   13 ar
    21   12   14 1
    22   13   32 1
    23   14   15 am
    24   14   33 1
    25   15   16 2
    26   15   17 1
    27   17   18 1
    28   17   34 1
    29   17   35 1
    30   18   19 am
    31   18   36 1
    32   19   20 2
    33   19   21 1
    34   21   22 1
    35   21   37 1
    36   21   38 1
    37   22   23 am
    38   22   39 1
    39   23   24 2
    40   23   25 1
    41   25   40 1
    42   25   41 1
    43   25   42 1
@<TRIPOS>MOLECULE
ZINC16696113
   29    30     0     0     0
SMALL
USER_CHARGES
6-[(E)-[(4,5-dimethylthiazol-2-yl)hydrazono]methyl]-1H-pyrimidine-2,4-dione
@<TRIPOS>ATOM
      1 C1         -4.8669   -0.5424    0.0475 C.3       1 <0>        -0.0818
      2 C2         -3.4575   -1.0758    0.0301 C.2       1 <0>         0.0868
      3 C3         -3.2212   -2.4113    0.0205 C.2       1 <0>        -0.2063
      4 S1         -1.4345   -2.4322    0.0027 S.3       1 <0>         0.0650
      5 C4         -1.1884   -0.7132    0.0096 C.2       1 <0>         0.3333
      6 N1         -2.4262   -0.2554    0.0297 N.2       1 <0>        -0.5339
      7 N2          0.0021   -0.0041    0.0020 N.pl3     1 <0>        -0.5129
      8 N3         -0.0169    1.3968    0.0097 N.2       1 <0>        -0.1835
      9 C5          1.1031    2.0639    0.0026 C.2       1 <0>         0.0680
     10 C6          1.0833    3.5261    0.0107 C.2       1 <0>         0.2569
     11 C7          2.2656    4.2428    0.0090 C.2       1 <0>        -0.2590
     12 C8          2.2072    5.6480    0.0123 C.2       1 <0>         0.5526
     13 O1          3.2346    6.3039    0.0064 O.2       1 <0>        -0.5111
     14 N4          1.0099    6.2651    0.0270 N.am      1 <0>        -0.6609
     15 H1          0.9699    7.2643    0.0331 H         1 <0>         0.4404
     16 C9         -0.1322    5.5555    0.0336 C.2       1 <0>         0.7033
     17 O2         -1.1980    6.1406    0.0465 O.2       1 <0>        -0.5350
     18 N5         -0.1176    4.2101    0.0258 N.am      1 <0>        -0.6331
     19 H2         -0.9794    3.7029    0.0310 H         1 <0>         0.4511
     20 C10        -4.1962   -3.5603    0.0244 C.3       1 <0>        -0.0577
     21 H3         -5.1961   -0.4193    1.0793 H         1 <0>         0.0764
     22 H4         -4.8969    0.4213   -0.4609 H         1 <0>         0.0756
     23 H5         -5.5270   -1.2434   -0.4633 H         1 <0>         0.0763
     24 H6          0.8486   -0.4776   -0.0086 H         1 <0>         0.4159
     25 H7          2.0456    1.5367   -0.0092 H         1 <0>         0.1569
     26 H8          3.2174    3.7325    0.0018 H         1 <0>         0.1793
     27 H9         -3.6478   -4.5023    0.0137 H         1 <0>         0.0731
     28 H10        -4.8140   -3.5097    0.9210 H         1 <0>         0.0821
     29 H11        -4.8322   -3.5002   -0.8588 H         1 <0>         0.0822
@<TRIPOS>BOND
     1    1    2 1
     2    1   21 1
     3    1   22 1
     4    1   23 1
     5    2    6 1
     6    2    3 2
     7    3    4 1
     8    3   20 1
     9    4    5 1
    10    5    6 2
    11    5    7 1
    12    7    8 1
    13    7   24 1
    14    8    9 2
    15    9   10 1
    16    9   25 1
    17   10   18 1
    18   10   11 2
    19   11   12 1
    20   11   26 1
    21   12   13 2
    22   12   14 am
    23   14   15 1
    24   14   16 am
    25   16   17 2
    26   16   18 am
    27   18   19 1
    28   20   27 1
    29   20   28 1
    30   20   29 1
@<TRIPOS>MOLECULE
ZINC40749729
   35    37     0     0     0
SMALL
USER_CHARGES

@<TRIPOS>ATOM
      1 C1         -0.4726    1.3870   -0.0697 C.2       1 <0>        -0.1110
      2 C2          0.8277    1.8904   -0.1752 C.2       1 <0>        -0.1830
      3 C3          1.6773    0.8372   -0.2370 C.2       1 <0>         0.0407
      4 N1          0.9586   -0.3101   -0.1742 N.2       1 <0>        -0.5079
      5 C4         -0.3758    0.0116   -0.0703 C.2       1 <0>        -0.1096
      6 C5         -1.4914   -0.9360    0.0233 C.2       1 <0>         0.6372
      7 O1         -2.6333   -0.5248    0.1119 O.2       1 <0>        -0.5442
      8 N2         -1.2518   -2.2623    0.0111 N.am      1 <0>        -0.6144
      9 C6          0.0547   -2.9576   -0.0826 C.3       1 <0>         0.1199
     10 H1          0.8479   -2.2983   -0.4353 H         1 <0>         0.1668
     11 C7         -0.2066   -4.1297   -1.0563 C.3       1 <0>        -0.1840
     12 C8         -1.7209   -4.4043   -0.9432 C.3       1 <0>        -0.1822
     13 C9         -2.2316   -3.3722    0.0947 C.3       1 <0>         0.1274
     14 H2         -3.2482   -3.0412   -0.1177 H         1 <0>         0.1232
     15 C10        -2.0944   -3.9980    1.4919 C.3       1 <0>        -0.1503
     16 C11        -0.6963   -4.6085    1.6262 C.3       1 <0>         0.0335
     17 C12         0.3621   -3.5405    1.3060 C.3       1 <0>        -0.1453
     18 N3         -0.5657   -5.7397    0.6982 N.4       1 <0>        -0.6803
     19 N4          1.2082    3.3203   -0.2131 N.pl3     1 <0>         0.0815
     20 O2          0.3551    4.1746   -0.1504 O.2       1 <0>        -0.2183
     21 O3          2.3720    3.6339   -0.3067 O.3       1 <0>        -0.2170
     22 H3         -1.3811    1.9663    0.0031 H         1 <0>         0.1258
     23 H4          2.7520    0.9013   -0.3226 H         1 <0>         0.1524
     24 H5          0.0520   -3.8417   -2.0752 H         1 <0>         0.1141
     25 H6          0.3623   -5.0088   -0.7534 H         1 <0>         0.0816
     26 H7         -2.2074   -4.2513   -1.9065 H         1 <0>         0.1129
     27 H8         -1.8971   -5.4185   -0.5848 H         1 <0>         0.0816
     28 H9         -2.2313   -3.2285    2.2516 H         1 <0>         0.1159
     29 H10        -2.8465   -4.7766    1.6187 H         1 <0>         0.0944
     30 H11        -0.5505   -4.9595    2.6478 H         1 <0>         0.1367
     31 H12         1.3490   -4.0032    1.2974 H         1 <0>         0.0952
     32 H13         0.3367   -2.7444    2.0500 H         1 <0>         0.1183
     33 H14        -0.6997   -5.4158   -0.2479 H         1 <0>         0.4517
     34 H15         0.3544   -6.1440    0.7882 H         1 <0>         0.4195
     35 H16        -1.2620   -6.4364    0.9171 H         1 <0>         0.4174
@<TRIPOS>BOND
     1    1    5 2
     2    1    2 1
     3    1   22 1
     4    2    3 2
     5    2   19 1
     6    3    4 1
     7    3   23 1
     8    4    5 1
     9    5    6 1
    10    6    7 2
    11    6    8 am
    12    8   13 1
    13    8    9 1
    14    9   10 1
    15    9   17 1
    16    9   11 1
    17   11   12 1
    18   11   24 1
    19   11   25 1
    20   12   13 1
    21   12   26 1
    22   12   27 1
    23   13   14 1
    24   13   15 1
    25   15   16 1
    26   15   28 1
    27   15   29 1
    28   16   17 1
    29   16   18 1
    30   16   30 1
    31   17   31 1
    32   17   32 1
    33   18   33 1
    34   18   34 1
    35   18   35 1
    36   19   20 2
    37   19   21 1
@<TRIPOS>MOLECULE
ZINC48499002
   33    34     0     0     0
SMALL
USER_CHARGES

@<TRIPOS>ATOM
      1 C1          1.1058    1.5019   -4.3532 C.3       1 <0>         0.0834
      2 N1          1.1134    0.0370   -4.3623 N.am      1 <0>        -0.7021
      3 C2          1.1470   -0.6439   -3.1996 C.2       1 <0>         0.5085
      4 O1          1.1709   -0.0435   -2.1452 O.2       1 <0>        -0.5142
      5 C3          1.1548   -2.1372   -3.2088 C.2       1 <0>         0.5077
      6 O2          1.1308   -2.7378   -4.2635 O.2       1 <0>        -0.5023
      7 N2          1.1883   -2.8181   -2.0462 N.am      1 <0>        -0.6392
      8 C4          1.1017   -4.2138   -2.0506 C.ar      1 <0>         0.1057
      9 C5          0.4274   -4.8713   -1.0291 C.ar      1 <0>        -0.1031
     10 C6          0.3421   -6.2489   -1.0337 C.ar      1 <0>        -0.1364
     11 C7          0.9307   -6.9779   -2.0589 C.ar      1 <0>         0.1819
     12 C8          1.6052   -6.3209   -3.0798 C.ar      1 <0>        -0.1423
     13 C9          1.6851   -4.9430   -3.0793 C.ar      1 <0>        -0.0862
     14 N3          0.8444   -8.3759   -2.0630 N.am      1 <0>        -0.5701
     15 C10         1.5207   -9.2685   -3.0160 C.3       1 <0>         0.0837
     16 C11         1.0882  -10.6792   -2.5713 C.3       1 <0>         0.0913
     17 N4          0.2141  -10.4316   -1.4150 N.am      1 <0>        -0.7356
     18 C12         0.1372   -9.1124   -1.1959 C.2       1 <0>         0.6998
     19 O3         -0.5182   -8.6271   -0.2941 O.2       1 <0>        -0.5655
     20 H1          0.2274    1.8574   -3.8144 H         1 <0>         0.0678
     21 H2          2.0068    1.8669   -3.8602 H         1 <0>         0.0679
     22 H3          1.0774    1.8714   -5.3783 H         1 <0>         0.0851
     23 H4          1.0943   -0.4430   -5.2050 H         1 <0>         0.4159
     24 H5          1.2726   -2.3400   -1.2064 H         1 <0>         0.4235
     25 H6         -0.0297   -4.3046   -0.2315 H         1 <0>         0.1342
     26 H7         -0.1821   -6.7600   -0.2397 H         1 <0>         0.1643
     27 H8          2.0635   -6.8880   -3.8766 H         1 <0>         0.1306
     28 H9          2.2056   -4.4319   -3.8757 H         1 <0>         0.1443
     29 H10         1.1841   -9.0680   -4.0331 H         1 <0>         0.0933
     30 H11         2.6026   -9.1588   -2.9413 H         1 <0>         0.0934
     31 H12         0.5368  -11.1791   -3.3677 H         1 <0>         0.0899
     32 H13         1.9553  -11.2699   -2.2759 H         1 <0>         0.0898
     33 H14        -0.2326  -11.1152   -0.8915 H         1 <0>         0.4350
@<TRIPOS>BOND
     1    1    2 1
     2    1   20 1
     3    1   21 1
     4    1   22 1
     5    2    3 am
     6    2   23 1
     7    3    4 2
     8    3    5 1
     9    5    6 2
    10    5    7 am
    11    7    8 1
    12    7   24 1
    13    8   13 ar
    14    8    9 ar
    15    9   10 ar
    16    9   25 1
    17   10   11 ar
    18   10   26 1
    19   11   12 ar
    20   11   14 1
    21   12   13 ar
    22   12   27 1
    23   13   28 1
    24   14   18 am
    25   14   15 1
    26   15   16 1
    27   15   29 1
    28   15   30 1
    29   16   17 1
    30   16   31 1
    31   16   32 1
    32   17   18 am
    33   17   33 1
    34   18   19 2
@<TRIPOS>MOLECULE
ZINC49500148
   38    39     0     0     0
SMALL
USER_CHARGES

@<TRIPOS>ATOM
      1 C1         -0.0184    1.5028    0.0103 C.3       1 <0>        -0.1142
      2 C2          0.0021   -0.0041    0.0020 C.2       1 <0>         0.2000
      3 C3         -1.1675   -0.7019    0.0037 C.2       1 <0>        -0.2509
      4 C4         -1.1127   -2.1111   -0.0047 C.2       1 <0>         0.5349
      5 O1         -2.1364   -2.7743   -0.0039 O.2       1 <0>        -0.5367
      6 N1          0.0972   -2.7104   -0.0141 N.am      1 <0>        -0.6290
      7 H1          0.1596   -3.6784   -0.0203 H         1 <0>         0.4182
      8 C5          1.2178   -1.9622   -0.0153 C.2       1 <0>         0.3993
      9 N2          1.1668   -0.6568   -0.0126 N.2       1 <0>        -0.5347
     10 C6          2.5603   -2.6467   -0.0259 C.3       1 <0>        -0.1131
     11 C7         -2.4922    0.0165    0.0149 C.3       1 <0>        -0.0705
     12 C8         -3.0001    0.1558   -1.3971 C.2       1 <0>         0.5265
     13 O2         -2.3503   -0.2850   -2.3215 O.2       1 <0>        -0.5160
     14 N3         -4.1763    0.7701   -1.6327 N.am      1 <0>        -0.7205
     15 C9         -4.6700    0.9055   -3.0053 C.3       1 <0>         0.1377
     16 H2         -4.3870    0.0239   -3.5805 H         1 <0>         0.1183
     17 C10        -6.1953    1.0324   -2.9869 C.3       1 <0>        -0.1309
     18 C11        -6.6642    1.4461   -4.3870 C.3       1 <0>        -0.1353
     19 C12        -6.1773    2.8686   -4.6660 C.3       1 <0>         0.1066
     20 N4         -4.7501    2.9821   -4.3931 N.am      1 <0>        -0.7210
     21 C13        -4.0649    2.1273   -3.6348 C.2       1 <0>         0.5022
     22 O3         -2.8877    2.3481   -3.4440 O.2       1 <0>        -0.5317
     23 H3          1.0042    1.8801    0.0026 H         1 <0>         0.0841
     24 H4         -0.5455    1.8639   -0.8728 H         1 <0>         0.0888
     25 H5         -0.5286    1.8543    0.9071 H         1 <0>         0.0855
     26 H6          2.8790   -2.8058   -1.0560 H         1 <0>         0.1021
     27 H7          3.2908   -2.0218    0.4880 H         1 <0>         0.1071
     28 H8          2.4823   -3.6076    0.4828 H         1 <0>         0.0888
     29 H9         -3.2099   -0.5539    0.6046 H         1 <0>         0.1083
     30 H10        -2.3653    1.0058    0.4546 H         1 <0>         0.1066
     31 H11        -4.6960    1.1226   -0.8933 H         1 <0>         0.4035
     32 H12        -6.6401    0.0740   -2.7192 H         1 <0>         0.0871
     33 H13        -6.4917    1.7904   -2.2618 H         1 <0>         0.0787
     34 H14        -6.2470    0.7648   -5.1285 H         1 <0>         0.0774
     35 H15        -7.7529    1.4169   -4.4316 H         1 <0>         0.0937
     36 H16        -6.3650    3.1152   -5.7110 H         1 <0>         0.0802
     37 H17        -6.7222    3.5670   -4.0308 H         1 <0>         0.0685
     38 H18        -4.2696    3.7267   -4.7876 H         1 <0>         0.4004
@<TRIPOS>BOND
     1    1    2 1
     2    1   23 1
     3    1   24 1
     4    1   25 1
     5    2    9 1
     6    2    3 2
     7    3    4 1
     8    3   11 1
     9    4    5 2
    10    4    6 am
    11    6    7 1
    12    6    8 1
    13    8    9 2
    14    8   10 1
    15   10   26 1
    16   10   27 1
    17   10   28 1
    18   11   12 1
    19   11   29 1
    20   11   30 1
    21   12   13 2
    22   12   14 am
    23   14   15 1
    24   14   31 1
    25   15   16 1
    26   15   21 1
    27   15   17 1
    28   17   18 1
    29   17   32 1
    30   17   33 1
    31   18   19 1
    32   18   34 1
    33   18   35 1
    34   19   20 1
    35   19   36 1
    36   19   37 1
    37   20   21 am
    38   20   38 1
    39   21   22 2
@<TRIPOS>MOLECULE
ZINC01745370
   32    34     0     0     0
SMALL
USER_CHARGES

@<TRIPOS>ATOM
      1 C1         -0.0184    1.5028    0.0103 C.3       1 <0>        -0.1125
      2 C2          0.0021   -0.0041    0.0020 C.ar      1 <0>        -0.1297
      3 C3          0.0056   -0.6819   -1.2057 C.ar      1 <0>         0.2332
      4 C4          0.0242   -2.0857   -1.2288 C.ar      1 <0>        -0.1946
      5 C5          0.0585   -2.8045   -0.0212 C.ar      1 <0>         0.0036
      6 C6          0.0426   -2.1046    1.1975 C.ar      1 <0>        -0.2429
      7 C7          0.0230   -0.6991    1.2095 C.ar      1 <0>         0.2069
      8 O1          0.0230   -0.2256    2.4772 O.3       1 <0>        -0.2849
      9 C8          0.0427   -1.3001    3.4171 C.3       1 <0>         0.2342
     10 C9          0.0487   -2.5706    2.5937 C.2       1 <0>         0.4016
     11 O2          0.0657   -3.7153    2.9945 O.2       1 <0>        -0.3500
     12 C10         1.2990   -1.2177    4.2864 C.3       1 <0>        -0.1716
     13 O3         -1.1277   -1.2599    4.2360 O.3       1 <0>        -0.5189
     14 C11         0.1203   -4.2788   -0.0277 C.2       1 <0>         0.3844
     15 O4          0.4885   -4.8794    0.9586 O.2       1 <0>        -0.3823
     16 C12        -0.2804   -5.0347   -1.2758 C.3       1 <0>        -0.1148
     17 C13         0.2874   -4.2812   -2.4664 C.2       1 <0>         0.1559
     18 N1          0.9700   -4.8684   -3.3768 N.2       1 <0>        -0.5915
     19 C14         0.0024   -2.8138   -2.5138 C.2       1 <0>         0.3898
     20 O5         -0.2366   -2.2465   -3.5616 O.2       1 <0>        -0.4008
     21 O6         -0.0093    0.0119   -2.3688 O.3       1 <0>        -0.4644
     22 H1          1.0042    1.8801    0.0026 H         1 <0>         0.0791
     23 H2         -0.5455    1.8639   -0.8728 H         1 <0>         0.0850
     24 H3         -0.5286    1.8543    0.9071 H         1 <0>         0.0783
     25 H4          1.2929   -0.2823    4.8460 H         1 <0>         0.0903
     26 H5          1.3154   -2.0569    4.9818 H         1 <0>         0.0998
     27 H6          2.1837   -1.2551    3.6509 H         1 <0>         0.0834
     28 H7         -1.2111   -0.4537    4.7635 H         1 <0>         0.3989
     29 H8          0.1308   -6.0437   -1.2458 H         1 <0>         0.1335
     30 H9         -1.3670   -5.0787   -1.3494 H         1 <0>         0.1379
     31 H10         1.3194   -4.3596   -4.1251 H         1 <0>         0.3564
     32 H11         0.8696    0.2254   -2.7107 H         1 <0>         0.4070
@<TRIPOS>BOND
     1    1    2 1
     2    1   22 1
     3    1   23 1
     4    1   24 1
     5    2    7 ar
     6    2    3 ar
     7    3    4 ar
     8    3   21 1
     9    4   19 1
    10    4    5 ar
    11    5    6 ar
    12    5   14 1
    13    6   10 1
    14    6    7 ar
    15    7    8 1
    16    8    9 1
    17    9   10 1
    18    9   12 1
    19    9   13 1
    20   10   11 2
    21   12   25 1
    22   12   26 1
    23   12   27 1
    24   13   28 1
    25   14   15 2
    26   14   16 1
    27   16   17 1
    28   16   29 1
    29   16   30 1
    30   17   18 2
    31   17   19 1
    32   18   31 1
    33   19   20 2
    34   21   32 1
@<TRIPOS>MOLECULE
ZINC12956544
   35    36     0     0     0
SMALL
USER_CHARGES
(2R)-1-(4-hydrazino-3-nitro-phenyl)sulfonylpyrrolidine-2-carboxylic acid
@<TRIPOS>ATOM
      1 C1         -0.0078    1.3534    0.2234 C.ar      1 <0>         0.1628
      2 C2          0.0483   -0.0259    0.2705 C.ar      1 <0>        -0.2113
      3 C3          1.2526   -0.6786    0.0410 C.ar      1 <0>         0.3196
      4 C4          2.3971    0.0589   -0.2354 C.ar      1 <0>        -0.1502
      5 C5          2.3340    1.4375   -0.2810 C.ar      1 <0>         0.0778
      6 C6          1.1331    2.0843   -0.0519 C.ar      1 <0>        -0.7009
      7 S1          1.0571    3.8437   -0.1109 S.o2      1 <0>         2.7273
      8 O1          2.1411    4.2699   -0.9248 O.2       1 <0>        -0.9735
      9 O2         -0.2922    4.1823   -0.4007 O.2       1 <0>        -0.9558
     10 N1          1.3664    4.3987    1.4183 N.pl3     1 <0>        -0.9871
     11 C7          2.6973    4.7294    1.9595 C.3       1 <0>         0.1160
     12 C8          2.4214    5.7392    3.1013 C.3       1 <0>        -0.1291
     13 C9          1.1051    5.1786    3.7017 C.3       1 <0>        -0.0996
     14 C10         0.3587    4.6495    2.4590 C.3       1 <0>         0.1038
     15 H1         -0.3576    5.3933    2.1099 H         1 <0>         0.0837
     16 C11        -0.3552    3.3671    2.8008 C.2       1 <0>         0.4570
     17 O3         -0.0580    2.3412    2.2359 O.co2     1 <0>        -0.6317
     18 N2          3.6827   -0.6324   -0.4802 N.pl3     1 <0>         0.0479
     19 O4          4.7217   -0.1509   -0.0652 O.2       1 <0>        -0.1528
     20 O5          3.7017   -1.6827   -1.0966 O.3       1 <0>        -0.2034
     21 N3          1.3130   -2.0732    0.0883 N.pl3     1 <0>        -0.5778
     22 N4          0.1686   -2.8013    0.2506 N.3       1 <0>        -0.5996
     23 H2         -0.9449    1.8614    0.3974 H         1 <0>         0.1563
     24 H3         -0.8432   -0.5962    0.4860 H         1 <0>         0.1505
     25 H4          3.2233    2.0114   -0.4961 H         1 <0>         0.1526
     26 H5          3.1798    3.8346    2.3528 H         1 <0>         0.0639
     27 H6          3.3176    5.1862    1.1884 H         1 <0>         0.0795
     28 H7          3.2243    5.7246    3.8383 H         1 <0>         0.0787
     29 H8          2.2737    6.7445    2.7066 H         1 <0>         0.0735
     30 H9          1.3145    4.3711    4.4032 H         1 <0>         0.0742
     31 H10         0.5344    5.9706    4.1867 H         1 <0>         0.0784
     32 H11         2.1675   -2.5247    0.0059 H         1 <0>         0.4118
     33 H12        -0.5057   -2.5796   -0.4665 H         1 <0>         0.3431
     34 H13         0.3684   -3.7902    0.2658 H         1 <0>         0.3625
     35 O6         -1.3213    3.3645    3.7327 O.co2     1 <0>        -0.7480
@<TRIPOS>BOND
     1    1    6 ar
     2    1    2 ar
     3    1   23 1
     4    2    3 ar
     5    2   24 1
     6    3    4 ar
     7    3   21 1
     8    4    5 ar
     9    4   18 1
    10    5    6 ar
    11    5   25 1
    12    6    7 1
    13    7    8 2
    14    7    9 2
    15    7   10 1
    16   10   14 1
    17   10   11 1
    18   11   12 1
    19   11   26 1
    20   11   27 1
    21   12   13 1
    22   12   28 1
    23   12   29 1
    24   13   14 1
    25   13   30 1
    26   13   31 1
    27   14   15 1
    28   14   16 1
    29   16   17 2
    30   16   35 1
    31   18   19 2
    32   18   20 1
    33   21   22 1
    34   21   32 1
    35   22   33 1
    36   22   34 1
@<TRIPOS>MOLECULE
ZINC36895415
   31    32     0     0     0
SMALL
USER_CHARGES

@<TRIPOS>ATOM
      1 C1         -0.1135    0.7519    1.4905 C.3       1 <0>        -0.0733
      2 C2         -0.1414   -0.7266    1.2001 C.2       1 <0>         0.1151
      3 C3         -0.0345   -1.3169   -0.0661 C.2       1 <0>        -0.3937
      4 C4         -0.1023   -2.6653    0.0913 C.2       1 <0>         0.3919
      5 O1         -0.2463   -2.9187    1.4031 O.3       1 <0>        -0.1671
      6 N1         -0.2635   -1.6778    2.0852 N.2       1 <0>        -0.3836
      7 N2         -0.0356   -3.6077   -0.9180 N.2       1 <0>        -1.0267
      8 S1         -0.1348   -5.2200   -0.5533 S.o2      1 <0>         2.6154
      9 O2          1.0292   -5.5391    0.1968 O.2       1 <0>        -1.0109
     10 O3         -1.4468   -5.4439   -0.0557 O.2       1 <0>        -1.0101
     11 C5         -0.0140   -6.1060   -2.0716 C.ar      1 <0>        -0.6683
     12 C6         -1.1579   -6.4022   -2.7904 C.ar      1 <0>         0.0656
     13 C7         -1.0668   -7.0959   -3.9808 C.ar      1 <0>        -0.2052
     14 C8          0.1756   -7.4966   -4.4562 C.ar      1 <0>         0.3130
     15 C9          1.3223   -7.1975   -3.7318 C.ar      1 <0>        -0.1411
     16 C10         1.2245   -6.4986   -2.5444 C.ar      1 <0>         0.0859
     17 N3          2.6479   -7.6227   -4.2342 N.pl3     1 <0>         0.0467
     18 O4          2.7698   -8.6888   -4.7913 O.2       1 <0>        -0.1911
     19 O5          3.6090   -6.9040   -4.0874 O.3       1 <0>        -0.1416
     20 N4          0.2713   -8.1989   -5.6598 N.pl3     1 <0>        -0.5741
     21 N5         -0.8620   -8.5902   -6.3142 N.3       1 <0>        -0.5990
     22 H1          0.9152    1.0695    1.6604 H         1 <0>         0.0762
     23 H2         -0.5266    1.2967    0.6416 H         1 <0>         0.0764
     24 H3         -0.7091    0.9587    2.3796 H         1 <0>         0.0683
     25 H4          0.0812   -0.7924   -1.0030 H         1 <0>         0.1364
     26 H5         -2.1235   -6.0908   -2.4201 H         1 <0>         0.1573
     27 H6         -1.9604   -7.3272   -4.5415 H         1 <0>         0.1527
     28 H7          2.1161   -6.2619   -1.9829 H         1 <0>         0.1626
     29 H8          1.1426   -8.4088   -6.0309 H         1 <0>         0.4150
     30 H9         -1.4611   -7.8006   -6.5037 H         1 <0>         0.3416
     31 H10        -0.6363   -9.0849   -7.1642 H         1 <0>         0.3656
@<TRIPOS>BOND
     1    1    2 1
     2    1   22 1
     3    1   23 1
     4    1   24 1
     5    2    6 2
     6    2    3 1
     7    3    4 2
     8    3   25 1
     9    4    5 1
    10    4    7 1
    11    5    6 1
    12    7    8 1
    13    8    9 2
    14    8   10 2
    15    8   11 1
    16   11   16 ar
    17   11   12 ar
    18   12   13 ar
    19   12   26 1
    20   13   14 ar
    21   13   27 1
    22   14   15 ar
    23   14   20 1
    24   15   16 ar
    25   15   17 1
    26   16   28 1
    27   17   18 2
    28   17   19 1
    29   20   21 1
    30   20   29 1
    31   21   30 1
    32   21   31 1
@<TRIPOS>MOLECULE
ZINC39299712
   30    31     0     0     0
SMALL
USER_CHARGES

@<TRIPOS>ATOM
      1 C1         -0.0163    1.3489    0.0095 C.2       1 <0>        -0.2492
      2 C2          1.3085    1.7974   -0.0008 C.2       1 <0>         0.0477
      3 N1          2.0941    0.7512   -0.0139 N.2       1 <0>        -0.2884
      4 N2          1.2927   -0.3978   -0.0124 N.pl3     1 <0>        -0.4682
      5 H1          1.6096   -1.3146   -0.0207 H         1 <0>         0.4388
      6 C3          0.0021   -0.0041    0.0020 C.2       1 <0>         0.0698
      7 C4         -1.2029   -0.9090    0.0091 C.3       1 <0>         0.1843
      8 N3         -1.5348   -1.2912   -1.3657 N.am      1 <0>        -0.7380
      9 C5         -2.5838   -2.1027   -1.6050 C.2       1 <0>         0.4885
     10 O1         -3.2532   -2.5167   -0.6822 O.2       1 <0>        -0.5067
     11 C6         -2.9252   -2.4958   -3.0192 C.3       1 <0>         0.1472
     12 N4         -4.0966   -3.3755   -3.0123 N.pl3     1 <0>        -0.4812
     13 C7         -4.0467   -4.7416   -2.8166 C.2       1 <0>         0.0795
     14 C8         -5.2463   -5.2848   -2.8595 C.2       1 <0>        -0.2587
     15 C9         -6.2271   -4.1603   -3.1137 C.3       1 <0>         0.0336
     16 H2         -6.9319   -4.0749   -2.2867 H         1 <0>         0.0896
     17 N5         -5.3822   -2.9519   -3.1929 N.3       1 <0>        -0.4222
     18 C10        -6.9621   -4.3849   -4.4100 C.2       1 <0>         0.4894
     19 O2         -7.7978   -5.2688   -4.4917 O.co2     1 <0>        -0.6899
     20 O3         -6.7209   -3.6826   -5.3771 O.co2     1 <0>        -0.6958
     21 H3         -0.8980    1.9724    0.0252 H         1 <0>         0.1518
     22 H4          1.6279    2.8291    0.0017 H         1 <0>         0.1861
     23 H5         -0.9821   -1.8035    0.5916 H         1 <0>         0.0787
     24 H6         -2.0484   -0.3848    0.4546 H         1 <0>         0.0955
     25 H7         -0.9994   -0.9601   -2.1037 H         1 <0>         0.4007
     26 H8         -3.1460   -1.6013   -3.6017 H         1 <0>         0.1064
     27 H9         -2.0797   -3.0200   -3.4648 H         1 <0>         0.0983
     28 H10        -3.1357   -5.2969   -2.6491 H         1 <0>         0.1408
     29 H11        -5.4840   -6.3311   -2.7372 H         1 <0>         0.1403
     30 H12        -5.4904   -2.4952   -4.0861 H         1 <0>         0.3312
@<TRIPOS>BOND
     1    1    6 2
     2    1    2 1
     3    1   21 1
     4    2    3 2
     5    2   22 1
     6    3    4 1
     7    4    5 1
     8    4    6 1
     9    6    7 1
    10    7    8 1
    11    7   23 1
    12    7   24 1
    13    8    9 am
    14    8   25 1
    15    9   10 2
    16    9   11 1
    17   11   12 1
    18   11   26 1
    19   11   27 1
    20   12   17 1
    21   12   13 1
    22   13   14 2
    23   13   28 1
    24   14   15 1
    25   14   29 1
    26   15   16 1
    27   15   17 1
    28   15   18 1
    29   17   30 1
    30   18   19 2
    31   18   20 1
@<TRIPOS>MOLECULE
ZINC48847137
   30    31     0     0     0
SMALL
USER_CHARGES

@<TRIPOS>ATOM
      1 C1         -0.0290    1.0058   -0.6519 C.ar      1 <0>        -0.1283
      2 C2          1.1210    1.7686   -0.6563 C.ar      1 <0>        -0.1343
      3 C3          2.2692    1.3024   -0.0303 C.ar      1 <0>         0.1642
      4 C4          2.2561    0.0513    0.6078 C.ar      1 <0>        -0.1483
      5 C5          1.0852   -0.7131    0.6060 C.ar      1 <0>        -0.0870
      6 C6         -0.0487   -0.2333   -0.0223 C.ar      1 <0>         0.0633
      7 O1         -1.1877   -0.9760   -0.0240 O.3       1 <0>        -0.5010
      8 C7          3.4675   -0.4524    1.2738 C.2       1 <0>         0.5257
      9 O2          3.4824   -1.5818    1.7442 O.co2     1 <0>        -0.6739
     10 O3          4.4601    0.2581    1.3572 O.co2     1 <0>        -0.6806
     11 N1          3.4290    2.0719   -0.0354 N.am      1 <0>        -0.6138
     12 C8          3.3488    3.4109   -0.1661 C.2       1 <0>         0.5663
     13 O4          2.2616    3.9571   -0.1771 O.2       1 <0>        -0.5237
     14 C9          4.5721    4.2098   -0.2952 C.2       1 <0>         0.0813
     15 N2          5.7264    3.6179   -0.2877 N.2       1 <0>        -0.1880
     16 N3          6.9138    4.3474   -0.4063 N.am      1 <0>        -0.5564
     17 C10         6.9305    5.6699   -0.1486 C.2       1 <0>         0.4986
     18 O5          7.9639    6.2962   -0.2483 O.2       1 <0>        -0.5238
     19 C11         5.6596    6.3678    0.2647 C.3       1 <0>        -0.1441
     20 C12         4.4707    5.7047   -0.4407 C.3       1 <0>        -0.1041
     21 H1         -0.9204    1.3758   -1.1367 H         1 <0>         0.1240
     22 H2          1.1279    2.7301   -1.1481 H         1 <0>         0.1454
     23 H3          1.0669   -1.6764    1.0940 H         1 <0>         0.1366
     24 H4         -1.2640   -1.5774   -0.7774 H         1 <0>         0.3801
     25 H5          4.2950    1.6445    0.0552 H         1 <0>         0.4373
     26 H6          7.7303    3.8985   -0.6760 H         1 <0>         0.4350
     27 H7          5.5362    6.2900    1.3449 H         1 <0>         0.1106
     28 H8          5.7112    7.4182   -0.0219 H         1 <0>         0.1191
     29 H9          4.4792    5.9678   -1.4984 H         1 <0>         0.1018
     30 H10         3.5415    6.0512    0.0116 H         1 <0>         0.1178
@<TRIPOS>BOND
     1    1    6 ar
     2    1    2 ar
     3    1   21 1
     4    2    3 ar
     5    2   22 1
     6    3    4 ar
     7    3   11 1
     8    4    5 ar
     9    4    8 1
    10    5    6 ar
    11    5   23 1
    12    6    7 1
    13    7   24 1
    14    8    9 2
    15    8   10 1
    16   11   12 am
    17   11   25 1
    18   12   13 2
    19   12   14 1
    20   14   20 1
    21   14   15 2
    22   15   16 1
    23   16   17 am
    24   16   26 1
    25   17   18 2
    26   17   19 1
    27   19   20 1
    28   19   27 1
    29   19   28 1
    30   20   29 1
    31   20   30 1
@<TRIPOS>MOLECULE
ZINC61685655
   28    29     0     0     0
SMALL
USER_CHARGES

@<TRIPOS>ATOM
      1 C1          0.0115    1.4310   -0.0543 C.ar      1 <0>        -0.1691
      2 C2          1.2260    2.0827   -0.1430 C.ar      1 <0>         0.0202
      3 C3          2.4046    1.3614   -0.0952 C.ar      1 <0>        -0.6303
      4 C4          2.3719   -0.0145    0.0415 C.ar      1 <0>         0.1048
      5 C5          1.1611   -0.6724    0.1308 C.ar      1 <0>        -0.1613
      6 C6         -0.0250    0.0494    0.0835 C.ar      1 <0>         0.2575
      7 N1         -1.2515   -0.6129    0.1740 N.pl3     1 <0>        -0.5890
      8 N2         -2.4168    0.0983    0.1269 N.3       1 <0>        -0.6017
      9 N3          3.6360   -0.7826    0.0918 N.pl3     1 <0>         0.0083
     10 O1          3.7126   -1.8572   -0.4569 O.2       1 <0>        -0.1842
     11 O2          4.5920   -0.3355    0.6815 O.3       1 <0>        -0.0570
     12 S1          3.9518    2.1968   -0.2093 S.o2      1 <0>         2.6047
     13 O3          4.7308    1.4810   -1.1580 O.2       1 <0>        -1.0113
     14 O4          3.6571    3.5794   -0.3534 O.2       1 <0>        -1.0171
     15 N4          4.7103    2.0244    1.2526 N.2       1 <0>        -1.0149
     16 C7          5.9653    2.5887    1.4558 C.2       1 <0>         0.3880
     17 C8          6.7279    2.5166    2.6440 C.2       1 <0>        -0.2660
     18 C9          7.8773    3.1842    2.4432 C.2       1 <0>         0.0098
     19 O5          7.8681    3.6675    1.1909 O.3       1 <0>        -0.1242
     20 N5          6.6525    3.2760    0.5789 N.2       1 <0>        -0.4575
     21 H1         -0.9087    1.9954   -0.0876 H         1 <0>         0.1469
     22 H2          1.2551    3.1570   -0.2502 H         1 <0>         0.1602
     23 H3          1.1363   -1.7469    0.2372 H         1 <0>         0.1468
     24 H4         -1.2757   -1.5778    0.2702 H         1 <0>         0.4080
     25 H5         -2.4666    0.6556   -0.7128 H         1 <0>         0.3381
     26 H6         -3.2164   -0.5123    0.2036 H         1 <0>         0.3606
     27 H7          6.4375    2.0132    3.5544 H         1 <0>         0.1409
     28 H8          8.6709    3.3102    3.1649 H         1 <0>         0.1892
@<TRIPOS>BOND
     1    1    6 ar
     2    1    2 ar
     3    1   21 1
     4    2    3 ar
     5    2   22 1
     6    3    4 ar
     7    3   12 1
     8    4    5 ar
     9    4    9 1
    10    5    6 ar
    11    5   23 1
    12    6    7 1
    13    7    8 1
    14    7   24 1
    15    8   25 1
    16    8   26 1
    17    9   10 2
    18    9   11 1
    19   12   13 2
    20   12   14 2
    21   12   15 1
    22   15   16 1
    23   16   20 2
    24   16   17 1
    25   17   18 2
    26   17   27 1
    27   18   19 1
    28   18   28 1
    29   19   20 1
@<TRIPOS>MOLECULE
ZINC09694455
   31    33     0     0     0
SMALL
USER_CHARGES

@<TRIPOS>ATOM
      1 C1          0.0104    1.4280   -0.0568 C.ar      1 <0>        -0.1118
      2 C2          0.6269    1.1156   -1.2553 C.ar      1 <0>        -0.1305
      3 C3          1.8259    0.4329   -1.2603 C.ar      1 <0>        -0.0569
      4 C4          2.4165    0.0576   -0.0535 C.ar      1 <0>        -0.0294
      5 C5          1.7898    0.3756    1.1517 C.ar      1 <0>        -0.1032
      6 C6          0.5910    1.0586    1.1433 C.ar      1 <0>        -0.1368
      7 C7          3.7021   -0.6752   -0.0517 C.2       1 <0>         0.1858
      8 C8          3.9876   -1.8090   -0.7580 C.2       1 <0>        -0.2085
      9 C9          5.3085   -2.1705   -0.4713 C.2       1 <0>         0.2790
     10 N1          5.8051   -1.2966    0.3714 N.2       1 <0>        -0.2965
     11 H1          4.9179    0.4244    1.2400 H         1 <0>         0.4435
     12 N2          4.8210   -0.3397    0.6504 N.pl3     1 <0>        -0.4600
     13 O1          5.9663   -3.2465   -0.9801 O.3       1 <0>        -0.4582
     14 C10         3.0473   -2.5403   -1.6811 C.3       1 <0>         0.1514
     15 C11         3.1439   -4.0237   -1.3753 C.2       1 <0>         0.5206
     16 N3          3.5041   -4.8390   -2.3913 N.am      1 <0>        -0.6949
     17 C12         3.7639   -4.3574   -3.6133 C.2       1 <0>         0.6719
     18 N4          3.6991   -3.0660   -3.9539 N.2       1 <0>        -0.6639
     19 C13         3.3676   -2.1277   -3.1048 C.2       1 <0>         0.4619
     20 O2          3.3131   -0.8402   -3.4816 O.3       1 <0>        -0.6089
     21 O3          4.0826   -5.1528   -4.4767 O.2       1 <0>        -0.5658
     22 O4          2.9087   -4.4582   -0.2682 O.2       1 <0>        -0.4945
     23 O5          1.7161   -2.1146   -1.3835 O.3       1 <0>        -0.5116
     24 H2         -0.9258    1.9665   -0.0580 H         1 <0>         0.1160
     25 H3          0.1684    1.4065   -2.1889 H         1 <0>         0.1218
     26 H4          2.3060    0.1893   -2.1966 H         1 <0>         0.1712
     27 H5          2.2420    0.0874    2.0892 H         1 <0>         0.1144
     28 H6          0.1049    1.3053    2.0756 H         1 <0>         0.1177
     29 H7          6.4383   -3.0653   -1.8044 H         1 <0>         0.4014
     30 H8          1.0376   -2.5337   -1.9304 H         1 <0>         0.3750
     31 H9          3.5762   -5.7931   -2.2318 H         1 <0>         0.3999
@<TRIPOS>BOND
     1    1    6 ar
     2    1    2 ar
     3    1   24 1
     4    2    3 ar
     5    2   25 1
     6    3    4 ar
     7    3   26 1
     8    4    5 ar
     9    4    7 1
    10    5    6 ar
    11    5   27 1
    12    6   28 1
    13    7   12 1
    14    7    8 2
    15    8    9 1
    16    8   14 1
    17    9   13 1
    18    9   10 2
    19   10   12 1
    20   11   12 1
    21   13   29 1
    22   14   19 1
    23   14   15 1
    24   14   23 1
    25   15   16 am
    26   15   22 2
    27   16   17 am
    28   16   31 1
    29   17   18 1
    30   17   21 2
    31   18   19 2
    32   19   20 1
    33   23   30 1
@<TRIPOS>MOLECULE
ZINC37002056
   35    36     0     0     0
SMALL
USER_CHARGES

@<TRIPOS>ATOM
      1 C1         -1.2753    1.1662    0.1751 C.3       1 <0>        -0.1085
      2 C2         -0.5884   -0.1715    0.0758 C.ar      1 <0>        -0.0756
      3 C3         -0.6616   -0.9107   -1.1067 C.ar      1 <0>        -0.0945
      4 C4         -0.0219   -2.1499   -1.1903 C.ar      1 <0>        -0.0917
      5 C5          0.6787   -2.6388   -0.1068 C.ar      1 <0>        -0.1176
      6 C6          0.7505   -1.9067    1.0636 C.ar      1 <0>        -0.1330
      7 C7          0.1229   -0.6697    1.1555 C.ar      1 <0>         0.0972
      8 N1          0.2042    0.0697    2.3410 N.am      1 <0>        -0.6236
      9 C8          0.4237   -0.5582    3.5132 C.2       1 <0>         0.4968
     10 O1          0.4509   -1.7700    3.5562 O.2       1 <0>        -0.5129
     11 C9          0.6353    0.2454    4.7704 C.3       1 <0>         0.0112
     12 H1         -0.0485    1.0936    4.8029 H         1 <0>         0.1699
     13 C10         2.1054    0.7239    4.8725 C.3       1 <0>        -0.1298
     14 C11         2.2943    0.9387    6.3918 C.3       1 <0>         0.0920
     15 H2          3.2851    0.6054    6.7006 H         1 <0>         0.1087
     16 C12         1.2079    0.0744    7.0582 C.3       1 <0>        -0.0396
     17 N2          0.4679   -0.6095    5.9734 N.4       1 <0>        -0.4989
     18 O2          2.1089    2.3159    6.7249 O.3       1 <0>        -0.5454
     19 C13        -1.4122   -0.3851   -2.2633 C.2       1 <0>         0.5223
     20 O3         -2.2994   -1.0554   -2.7722 O.co2     1 <0>        -0.6765
     21 O4         -1.1469    0.7208   -2.7130 O.co2     1 <0>        -0.6758
     22 H3         -0.5649    1.9580   -0.0626 H         1 <0>         0.0739
     23 H4         -2.1068    1.2008   -0.5288 H         1 <0>         0.0857
     24 H5         -1.6510    1.3073    1.1885 H         1 <0>         0.0449
     25 H6         -0.0761   -2.7253   -2.1027 H         1 <0>         0.1264
     26 H7          1.1726   -3.5969   -0.1733 H         1 <0>         0.1235
     27 H8          1.3002   -2.2951    1.9082 H         1 <0>         0.1340
     28 H9          0.1026    1.0341    2.3190 H         1 <0>         0.4169
     29 H10         2.7871   -0.0425    4.5036 H         1 <0>         0.1196
     30 H11         2.2451    1.6592    4.3305 H         1 <0>         0.1379
     31 H12         1.6705   -0.6619    7.7155 H         1 <0>         0.1449
     32 H13         0.5266    0.7075    7.6267 H         1 <0>         0.1425
     33 H14        -0.5096   -0.6880    6.2111 H         1 <0>         0.4379
     34 H15         2.2154    2.5107    7.6661 H         1 <0>         0.3978
     35 H16         0.8616   -1.5237    5.8081 H         1 <0>         0.4396
@<TRIPOS>BOND
     1    1    2 1
     2    1   22 1
     3    1   23 1
     4    1   24 1
     5    2    7 ar
     6    2    3 ar
     7    3    4 ar
     8    3   19 1
     9    4    5 ar
    10    4   25 1
    11    5    6 ar
    12    5   26 1
    13    6    7 ar
    14    6   27 1
    15    7    8 1
    16    8    9 am
    17    8   28 1
    18    9   10 2
    19    9   11 1
    20   11   12 1
    21   11   17 1
    22   11   13 1
    23   13   14 1
    24   13   29 1
    25   13   30 1
    26   14   15 1
    27   14   16 1
    28   14   18 1
    29   16   17 1
    30   16   31 1
    31   16   32 1
    32   17   33 1
    33   17   35 1
    34   18   34 1
    35   19   20 2
    36   19   21 1
@<TRIPOS>MOLECULE
ZINC42431224
   35    35     0     0     0
SMALL
USER_CHARGES

@<TRIPOS>ATOM
      1 C1         -0.0178    1.4608    0.0101 C.3       1 <0>         0.0892
      2 N1          0.0021   -0.0041    0.0020 N.am      1 <0>        -0.5905
      3 C2          0.0241   -0.7433    1.2666 C.3       1 <0>         0.0581
      4 C3         -1.3889   -1.0161    1.7137 C.2       1 <0>         0.4843
      5 O1         -2.3274   -0.6289    1.0386 O.co2     1 <0>        -0.6966
      6 O2         -1.5937   -1.6240    2.7506 O.co2     1 <0>        -0.6900
      7 C4          0.0001   -0.6716   -1.1688 C.2       1 <0>         0.7079
      8 O3          0.0166   -1.8873   -1.1755 O.2       1 <0>        -0.5777
      9 N2         -0.0202    0.0085   -2.3322 N.am      1 <0>        -0.7650
     10 C5         -0.0224   -0.7171   -3.6049 C.3       1 <0>         0.1478
     11 H1         -0.5984   -1.6363   -3.4981 H         1 <0>         0.1135
     12 C6          1.4157   -1.0594   -3.9993 C.3       1 <0>        -0.1296
     13 C7          2.2242    0.2309   -4.1493 C.3       1 <0>        -0.1284
     14 C8          1.5924    1.1055   -5.2339 C.3       1 <0>        -0.1149
     15 C9          0.1542    1.4478   -4.8395 C.3       1 <0>        -0.1422
     16 C10        -0.6543    0.1575   -4.6896 C.3       1 <0>         0.0201
     17 H2         -0.6559   -0.3823   -5.6365 H         1 <0>         0.1554
     18 N3         -2.0351    0.4861   -4.3109 N.4       1 <0>        -0.6358
     19 H3          1.0048    1.8381    0.0023 H         1 <0>         0.0511
     20 H4         -0.5450    1.8219   -0.8730 H         1 <0>         0.0479
     21 H5         -0.5280    1.8123    0.9069 H         1 <0>         0.0799
     22 H6          0.5496   -1.6879    1.1262 H         1 <0>         0.0851
     23 H7          0.5371   -0.1514    2.0246 H         1 <0>         0.0777
     24 H8         -0.0334    0.9784   -2.3269 H         1 <0>         0.3901
     25 H9          1.8659   -1.6825   -3.2266 H         1 <0>         0.0917
     26 H10         1.4141   -1.5993   -4.9462 H         1 <0>         0.0799
     27 H11         2.2259    0.7707   -3.2024 H         1 <0>         0.0706
     28 H12         3.2488   -0.0130   -4.4302 H         1 <0>         0.0773
     29 H13         2.1683    2.0247   -5.3408 H         1 <0>         0.0837
     30 H14         1.5907    0.5657   -6.1808 H         1 <0>         0.0756
     31 H15         0.1558    1.9877   -3.8926 H         1 <0>         0.0842
     32 H16        -0.2960    2.0709   -5.6123 H         1 <0>         0.0915
     33 H17        -2.0336    0.9859   -3.4344 H         1 <0>         0.4340
     34 H18        -2.4518    1.0630   -5.0262 H         1 <0>         0.4335
     35 H19        -2.5683   -0.3647   -4.2120 H         1 <0>         0.4406
@<TRIPOS>BOND
     1    1    2 1
     2    1   19 1
     3    1   20 1
     4    1   21 1
     5    2    3 1
     6    2    7 am
     7    3    4 1
     8    3   22 1
     9    3   23 1
    10    4    5 2
    11    4    6 1
    12    7    8 2
    13    7    9 am
    14    9   10 1
    15    9   24 1
    16   10   11 1
    17   10   16 1
    18   10   12 1
    19   12   13 1
    20   12   25 1
    21   12   26 1
    22   13   14 1
    23   13   27 1
    24   13   28 1
    25   14   15 1
    26   14   29 1
    27   14   30 1
    28   15   16 1
    29   15   31 1
    30   15   32 1
    31   16   17 1
    32   16   18 1
    33   18   33 1
    34   18   34 1
    35   18   35 1
@<TRIPOS>MOLECULE
ZINC49487390
   34    34     0     0     0
SMALL
USER_CHARGES

@<TRIPOS>ATOM
      1 C1         -0.0101    1.4928    0.0039 C.3       1 <0>        -0.1247
      2 C2          0.0148   -0.0140    0.0019 C.ar      1 <0>        -0.0744
      3 C3          0.0267   -0.7012   -1.1975 C.ar      1 <0>        -0.1094
      4 C4          0.0490   -2.0809   -1.2074 C.ar      1 <0>        -0.0908
      5 C5          0.0601   -2.7878   -0.0034 C.ar      1 <0>        -0.1285
      6 C6          0.0486   -2.0950    1.2067 C.ar      1 <0>        -0.0552
      7 C7          0.0314   -0.7082    1.2061 C.ar      1 <0>         0.1279
      8 N1          0.0250   -0.0088    2.4161 N.am      1 <0>        -0.6421
      9 C8         -0.6322   -0.5100    3.4807 C.2       1 <0>         0.5063
     10 O1         -1.1491   -1.6062    3.4139 O.2       1 <0>        -0.4903
     11 C9         -0.7245    0.2835    4.7427 C.2       1 <0>         0.5113
     12 O2         -0.2077    1.3795    4.8095 O.2       1 <0>        -0.5151
     13 N2         -1.3818   -0.2177    5.8072 N.am      1 <0>        -0.6936
     14 C10        -1.4723    0.5605    7.0451 C.3       1 <0>         0.1449
     15 C11        -2.2527   -0.2185    8.0723 C.2       1 <0>        -0.1857
     16 C12        -1.7279   -0.4612    9.2478 C.2       1 <0>        -0.1547
     17 C13         0.0836   -4.2662   -0.0115 C.2       1 <0>         0.5637
     18 O3          0.0932   -4.8796    1.0379 O.2       1 <0>        -0.5331
     19 N3          0.0943   -4.9336   -1.1823 N.am      1 <0>        -0.8504
     20 H1          1.0114    1.8730    0.0000 H         1 <0>         0.0801
     21 H2         -0.5337    1.8487   -0.8834 H         1 <0>         0.0785
     22 H3         -0.5260    1.8465    0.8966 H         1 <0>         0.0693
     23 H4          0.0182   -0.1564   -2.1299 H         1 <0>         0.1376
     24 H5          0.0576   -2.6140   -2.1467 H         1 <0>         0.1306
     25 H6          0.0571   -2.6364    2.1411 H         1 <0>         0.1552
     26 H7          0.4936    0.8373    2.4897 H         1 <0>         0.4250
     27 H8         -1.7948   -1.0938    5.7538 H         1 <0>         0.4165
     28 H9         -0.4696    0.7585    7.4240 H         1 <0>         0.0801
     29 H10        -1.9779    1.5051    6.8443 H         1 <0>         0.0845
     30 H11        -3.2446   -0.5766    7.8394 H         1 <0>         0.1194
     31 H12        -0.7360   -0.1031    9.4808 H         1 <0>         0.1021
     32 H13        -2.2872   -1.0195    9.9840 H         1 <0>         0.1073
     33 H14         0.0866   -4.4441   -2.0197 H         1 <0>         0.4009
     34 H15         0.1097   -5.9035   -1.1876 H         1 <0>         0.4069
@<TRIPOS>BOND
     1    1    2 1
     2    1   20 1
     3    1   21 1
     4    1   22 1
     5    2    7 ar
     6    2    3 ar
     7    3    4 ar
     8    3   23 1
     9    4    5 ar
    10    4   24 1
    11    5    6 ar
    12    5   17 1
    13    6    7 ar
    14    6   25 1
    15    7    8 1
    16    8    9 am
    17    8   26 1
    18    9   10 2
    19    9   11 1
    20   11   12 2
    21   11   13 am
    22   13   14 1
    23   13   27 1
    24   14   15 1
    25   14   28 1
    26   14   29 1
    27   15   16 2
    28   15   30 1
    29   16   31 1
    30   16   32 1
    31   17   18 2
    32   17   19 am
    33   19   33 1
    34   19   34 1
@<TRIPOS>MOLECULE
ZINC58839015
   38    38     0     0     0
SMALL
USER_CHARGES

@<TRIPOS>ATOM
      1 C1         -0.0187    1.5258    0.0104 C.3       1 <0>        -0.1487
      2 C2          0.0021   -0.0041    0.0020 C.3       1 <0>        -0.0974
      3 H1         -1.0205   -0.3814    0.0098 H         1 <0>         0.0756
      4 C3          0.7182   -0.4975   -1.2568 C.3       1 <0>        -0.1124
      5 C4          0.7390   -2.0273   -1.2652 C.3       1 <0>        -0.1225
      6 C5          1.4790   -2.5342   -0.0257 C.3       1 <0>        -0.1181
      7 C6          0.7628   -2.0407    1.2331 C.3       1 <0>        -0.1305
      8 C7          0.7421   -0.5109    1.2415 C.3       1 <0>         0.1523
      9 H2          1.7647   -0.1336    1.2338 H         1 <0>         0.0897
     10 N1          0.0564   -0.0384    2.4469 N.am      1 <0>        -0.7259
     11 C8          0.7380    0.0932    3.6021 C.2       1 <0>         0.5128
     12 O1          1.9190   -0.1795    3.6438 O.2       1 <0>        -0.5074
     13 C9          0.0326    0.5792    4.8420 C.3       1 <0>         0.0423
     14 O2          0.9605    0.6339    5.9274 O.3       1 <0>        -0.3363
     15 C10         0.3901    1.0850    7.1575 C.3       1 <0>         0.0502
     16 C11         1.4519    1.1034    8.2267 C.2       1 <0>         0.5117
     17 O3          2.5856    0.7636    7.9614 O.2       1 <0>        -0.4966
     18 N2          1.1418    1.4974    9.4777 N.am      1 <0>        -0.5796
     19 N3          2.1044    1.5141   10.4468 N.3       1 <0>        -0.6010
     20 H3          1.0039    1.9031    0.0027 H         1 <0>         0.0568
     21 H4         -0.5459    1.8868   -0.8726 H         1 <0>         0.0583
     22 H5         -0.5289    1.8773    0.9072 H         1 <0>         0.0546
     23 H6          0.1910   -0.1364   -2.1398 H         1 <0>         0.0682
     24 H7          1.7408   -0.1202   -1.2645 H         1 <0>         0.0661
     25 H8         -0.2836   -2.4046   -1.2575 H         1 <0>         0.0626
     26 H9          1.2492   -2.3788   -2.1620 H         1 <0>         0.0650
     27 H10         1.4937   -3.6240   -0.0317 H         1 <0>         0.0658
     28 H11         2.5015   -2.1569   -0.0334 H         1 <0>         0.0652
     29 H12        -0.2598   -2.4180    1.2409 H         1 <0>         0.0637
     30 H13         1.2900   -2.4018    2.1162 H         1 <0>         0.0687
     31 H14        -0.8882    0.1796    2.4135 H         1 <0>         0.3992
     32 H15        -0.3749    1.5740    4.6618 H         1 <0>         0.0834
     33 H16        -0.7779   -0.1058    5.0910 H         1 <0>         0.0843
     34 H17        -0.0100    2.0903    7.0254 H         1 <0>         0.0838
     35 H18        -0.4130    0.4105    7.4546 H         1 <0>         0.0866
     36 H19         0.2352    1.7691    9.6899 H         1 <0>         0.4011
     37 H20         2.8899    2.0820   10.1666 H         1 <0>         0.3488
     38 H21         1.7257    1.8299   11.3272 H         1 <0>         0.3595
@<TRIPOS>BOND
     1    1    2 1
     2    1   20 1
     3    1   21 1
     4    1   22 1
     5    2    3 1
     6    2    8 1
     7    2    4 1
     8    4    5 1
     9    4   23 1
    10    4   24 1
    11    5    6 1
    12    5   25 1
    13    5   26 1
    14    6    7 1
    15    6   27 1
    16    6   28 1
    17    7    8 1
    18    7   29 1
    19    7   30 1
    20    8    9 1
    21    8   10 1
    22   10   11 am
    23   10   31 1
    24   11   12 2
    25   11   13 1
    26   13   14 1
    27   13   32 1
    28   13   33 1
    29   14   15 1
    30   15   16 1
    31   15   34 1
    32   15   35 1
    33   16   17 2
    34   16   18 am
    35   18   19 1
    36   18   36 1
    37   19   37 1
    38   19   38 1
@<TRIPOS>MOLECULE
ZINC66002170
   33    34     0     0     0
SMALL
USER_CHARGES

@<TRIPOS>ATOM
      1 C1         -0.0167    1.3794    0.0096 C.ar      1 <0>        -0.1082
      2 C2          1.1667    2.0884    0.0021 C.ar      1 <0>        -0.0587
      3 C3          2.3848    1.4070   -0.0132 C.ar      1 <0>        -0.1267
      4 C4          2.3966    0.0113   -0.0208 C.ar      1 <0>        -0.0869
      5 C5          1.2061   -0.6856   -0.0132 C.ar      1 <0>        -0.1053
      6 C6          0.0021   -0.0041    0.0020 C.ar      1 <0>        -0.0779
      7 C7         -1.2946   -0.7719    0.0103 C.3       1 <0>         0.1529
      8 N1         -1.7280   -1.0134   -1.3682 N.pl3     1 <0>        -1.1197
      9 S1         -2.9032   -2.1371   -1.6819 S.o2      1 <0>         2.8010
     10 O1         -3.1176   -2.1192   -3.0865 O.2       1 <0>        -0.9808
     11 O2         -2.5332   -3.3176   -0.9827 O.2       1 <0>        -0.9809
     12 N2         -4.3016   -1.5915   -0.9826 N.pl3     1 <0>        -1.2620
     13 C8          3.6569    2.1603   -0.0218 C.2       1 <0>         0.5621
     14 O3          3.6435    3.3757   -0.0155 O.2       1 <0>        -0.5303
     15 N3          4.8314    1.4994   -0.0366 N.am      1 <0>        -0.6984
     16 C9          6.0919    2.2459   -0.0451 C.3       1 <0>         0.0761
     17 C10         7.1912    1.7652   -0.9945 C.3       1 <0>        -0.1915
     18 C11         7.3320    1.5446    0.5129 C.3       1 <0>        -0.1874
     19 H1         -0.9598    1.9054    0.0260 H         1 <0>         0.1351
     20 H2          1.1508    3.1682    0.0077 H         1 <0>         0.1407
     21 H3          3.3358   -0.5219   -0.0330 H         1 <0>         0.1284
     22 H4          1.2138   -1.7656   -0.0191 H         1 <0>         0.1353
     23 H5         -1.1489   -1.7256    0.5176 H         1 <0>         0.0952
     24 H6         -2.0557   -0.1941    0.5345 H         1 <0>         0.0787
     25 H7         -1.3266   -0.5149   -2.0971 H         1 <0>         0.4236
     26 H8         -4.3067   -0.7492   -0.5014 H         1 <0>         0.4143
     27 H9         -5.1156   -2.1141   -1.0541 H         1 <0>         0.4221
     28 H10         4.8421    0.5294   -0.0416 H         1 <0>         0.4017
     29 H11         6.0036    3.3196    0.1207 H         1 <0>         0.1403
     30 H12         6.9765    0.8936   -1.6129 H         1 <0>         0.0979
     31 H13         7.8262    2.5228   -1.4538 H         1 <0>         0.1049
     32 H14         8.0597    2.1570    1.0454 H         1 <0>         0.1062
     33 H15         7.2100    0.5279    0.8863 H         1 <0>         0.0982
@<TRIPOS>BOND
     1    1    6 ar
     2    1    2 ar
     3    1   19 1
     4    2    3 ar
     5    2   20 1
     6    3    4 ar
     7    3   13 1
     8    4    5 ar
     9    4   21 1
    10    5    6 ar
    11    5   22 1
    12    6    7 1
    13    7    8 1
    14    7   23 1
    15    7   24 1
    16    8    9 1
    17    8   25 1
    18    9   10 2
    19    9   11 2
    20    9   12 1
    21   12   26 1
    22   12   27 1
    23   13   14 2
    24   13   15 am
    25   15   16 1
    26   15   28 1
    27   16   18 1
    28   16   17 1
    29   16   29 1
    30   17   18 1
    31   17   30 1
    32   17   31 1
    33   18   32 1
    34   18   33 1
@<TRIPOS>MOLECULE
ZINC37044788
   29    30     0     0     0
SMALL
USER_CHARGES

@<TRIPOS>ATOM
      1 C1         -2.6792   -0.1613    0.9190 C.3       1 <0>        -0.1818
      2 C2         -1.6130    0.8603    1.3195 C.3       1 <0>         0.0126
      3 H1         -0.9078    0.9903    0.4985 H         1 <0>         0.1643
      4 C3         -0.8783    0.3676    2.5395 C.2       1 <0>         0.4870
      5 O1         -1.1662    0.7987    3.6361 O.2       1 <0>        -0.4936
      6 N1          0.0988   -0.5519    2.4122 N.am      1 <0>        -0.6375
      7 C4          0.8461   -0.9383    3.5306 C.ar      1 <0>         0.1046
      8 C5          2.1958   -1.2402    3.3940 C.ar      1 <0>        -0.1490
      9 C6          2.9377   -1.6222    4.4955 C.ar      1 <0>        -0.1008
     10 C7          2.3428   -1.7062    5.7385 C.ar      1 <0>        -0.1014
     11 C8          0.9887   -1.4055    5.8855 C.ar      1 <0>         0.0703
     12 C9          0.2416   -1.0143    4.7757 C.ar      1 <0>        -0.0990
     13 C10         0.3484   -1.4959    7.2172 C.2       1 <0>         0.0641
     14 N2         -0.9295   -1.2460    7.5070 N.2       1 <0>        -0.3658
     15 N3         -1.0847   -1.4390    8.7722 N.2       1 <0>        -0.1858
     16 N4          0.0384   -1.7985    9.2878 N.2       1 <0>        -0.1822
     17 N5          0.9346   -1.8486    8.3623 N.2       1 <0>        -0.3608
     18 N6         -2.2558    2.1463    1.6210 N.4       1 <0>        -0.6209
     19 H2         -3.3844   -0.2912    1.7400 H         1 <0>         0.0932
     20 H3         -3.2106    0.1950    0.0366 H         1 <0>         0.0971
     21 H4         -2.2022   -1.1155    0.6953 H         1 <0>         0.1118
     22 H5          0.2840   -0.9460    1.5454 H         1 <0>         0.4144
     23 H6          2.6662   -1.1765    2.4239 H         1 <0>         0.1219
     24 H7          3.9861   -1.8561    4.3837 H         1 <0>         0.1304
     25 H8          2.9258   -2.0051    6.5971 H         1 <0>         0.1363
     26 H9         -0.8060   -0.7758    4.8847 H         1 <0>         0.1447
     27 H10        -2.9085    2.0260    2.3810 H         1 <0>         0.4441
     28 H11        -1.5526    2.8201    1.8851 H         1 <0>         0.4409
     29 H12        -2.7477    2.4762    0.8041 H         1 <0>         0.4407
@<TRIPOS>BOND
     1    1    2 1
     2    1   19 1
     3    1   20 1
     4    1   21 1
     5    2    3 1
     6    2    4 1
     7    2   18 1
     8    4    5 2
     9    4    6 am
    10    6    7 1
    11    6   22 1
    12    7   12 ar
    13    7    8 ar
    14    8    9 ar
    15    8   23 1
    16    9   10 ar
    17    9   24 1
    18   10   11 ar
    19   10   25 1
    20   11   12 ar
    21   11   13 1
    22   12   26 1
    23   13   17 2
    24   13   14 1
    25   14   15 1
    26   15   16 2
    27   16   17 1
    28   18   27 1
    29   18   28 1
    30   18   29 1
@<TRIPOS>MOLECULE
ZINC44927785
   27    28     0     0     0
SMALL
USER_CHARGES

@<TRIPOS>ATOM
      1 C1         -0.0167    1.3779    0.0096 C.ar      1 <0>        -0.0830
      2 C2          1.1696    2.0886    0.0021 C.ar      1 <0>        -0.1291
      3 C3          2.3802    1.4154   -0.0130 C.ar      1 <0>         0.1137
      4 C4          2.3990    0.0236   -0.0206 C.ar      1 <0>         0.0850
      5 C5          1.2071   -0.6822   -0.0130 C.ar      1 <0>        -0.1047
      6 C6          0.0021   -0.0041    0.0020 C.ar      1 <0>        -0.1518
      7 C7         -1.2936   -0.7736    0.0102 C.3       1 <0>         0.0473
      8 N1         -1.7278   -1.0162   -1.3720 N.4       1 <0>        -0.5060
      9 C8         -2.9908   -1.7663   -1.3641 C.3       1 <0>         0.1275
     10 C9         -3.4362   -2.0152   -2.7821 C.2       1 <0>        -0.0315
     11 N2         -4.2082   -1.2283   -3.5174 N.2       1 <0>        -0.3527
     12 N3         -4.3555   -1.7915   -4.6678 N.2       1 <0>        -0.1613
     13 N4         -3.7036   -2.9018   -4.6777 N.2       1 <0>        -0.1613
     14 N5         -3.1266   -3.0603   -3.5356 N.2       1 <0>        -0.3524
     15 O1          3.5850   -0.6417   -0.0359 O.3       1 <0>        -0.4828
     16 O2          3.5476    2.1129   -0.0209 O.3       1 <0>        -0.4845
     17 H1         -0.9598    1.9038    0.0259 H         1 <0>         0.1416
     18 H2          1.1522    3.1684    0.0077 H         1 <0>         0.1452
     19 H3          1.2190   -1.7621   -0.0189 H         1 <0>         0.1439
     20 H4         -1.1467   -1.7271    0.5175 H         1 <0>         0.1381
     21 H5         -2.0555   -0.1967    0.5344 H         1 <0>         0.1397
     22 H6         -1.8638   -0.1336   -1.8417 H         1 <0>         0.4275
     23 H7         -2.8439   -2.7198   -0.8567 H         1 <0>         0.1353
     24 H8         -3.7527   -1.1894   -0.8399 H         1 <0>         0.1356
     25 H9          3.9367   -0.8389    0.8430 H         1 <0>         0.3952
     26 H10         3.8938    2.3101    0.8602 H         1 <0>         0.3979
     27 H11        -1.0225   -1.5502   -1.8573 H         1 <0>         0.4276
@<TRIPOS>BOND
     1    1    6 ar
     2    1    2 ar
     3    1   17 1
     4    2    3 ar
     5    2   18 1
     6    3    4 ar
     7    3   16 1
     8    4    5 ar
     9    4   15 1
    10    5    6 ar
    11    5   19 1
    12    6    7 1
    13    7    8 1
    14    7   20 1
    15    7   21 1
    16    8    9 1
    17    8   22 1
    18    8   27 1
    19    9   10 1
    20    9   23 1
    21    9   24 1
    22   10   14 2
    23   10   11 1
    24   11   12 1
    25   12   13 2
    26   13   14 1
    27   15   25 1
    28   16   26 1
@<TRIPOS>MOLECULE
ZINC50306415
   30    31     0     0     0
SMALL
USER_CHARGES

@<TRIPOS>ATOM
      1 C1         -0.0184    1.5028    0.0103 C.3       1 <0>        -0.0816
      2 C2          0.0021   -0.0041    0.0020 C.2       1 <0>         0.0599
      3 C3          0.0059   -0.7076   -1.1591 C.2       1 <0>        -0.2248
      4 S1          0.0324   -2.3789   -0.5312 S.3       1 <0>         0.1292
      5 C4          0.0357   -2.0088    1.1107 C.2       1 <0>         0.0250
      6 N1          0.0226   -0.6992    1.1217 N.2       1 <0>        -0.4954
      7 C5          0.0549   -2.9548    2.2837 C.3       1 <0>         0.2148
      8 N2         -1.3200   -3.2810    2.6705 N.am      1 <0>        -0.7153
      9 C6         -1.5493   -4.1163    3.7030 C.2       1 <0>         0.6172
     10 O1         -0.6151   -4.5991    4.3136 O.2       1 <0>        -0.5366
     11 C7         -2.9332   -4.4446    4.0924 C.2       1 <0>        -0.0684
     12 C8         -3.3306   -5.2978    5.1540 C.2       1 <0>         0.1610
     13 C9         -4.6899   -5.2957    5.1301 C.2       1 <0>        -0.0819
     14 N3         -5.0693   -4.4842    4.1084 N.pl3     1 <0>        -0.3613
     15 H1         -5.9882   -4.2968    3.8603 H         1 <0>         0.4484
     16 N4         -4.0357   -3.9959    3.5227 N.2       1 <0>        -0.2360
     17 C10        -5.6033   -6.0512    6.0607 C.3       1 <0>        -0.0713
     18 N5         -2.4974   -5.9956    6.0405 N.pl3     1 <0>        -0.8525
     19 H2          1.0042    1.8801    0.0026 H         1 <0>         0.0764
     20 H3         -0.5455    1.8639   -0.8728 H         1 <0>         0.0761
     21 H4         -0.5286    1.8543    0.9071 H         1 <0>         0.0758
     22 H5         -0.0043   -0.3543   -2.1797 H         1 <0>         0.1989
     23 H6          0.5804   -3.8682    2.0052 H         1 <0>         0.0990
     24 H7          0.5661   -2.4828    3.1227 H         1 <0>         0.1040
     25 H8         -2.0652   -2.8958    2.1835 H         1 <0>         0.4102
     26 H9         -5.8336   -5.4307    6.9268 H         1 <0>         0.0719
     27 H10        -6.5263   -6.3031    5.5385 H         1 <0>         0.0694
     28 H11        -5.1107   -6.9661    6.3898 H         1 <0>         0.0772
     29 H12        -1.5336   -5.9200    5.9615 H         1 <0>         0.4129
     30 H13        -2.8850   -6.5539    6.7326 H         1 <0>         0.3978
@<TRIPOS>BOND
     1    1    2 1
     2    1   19 1
     3    1   20 1
     4    1   21 1
     5    2    6 1
     6    2    3 2
     7    3    4 1
     8    3   22 1
     9    4    5 1
    10    5    6 2
    11    5    7 1
    12    7    8 1
    13    7   23 1
    14    7   24 1
    15    8    9 am
    16    8   25 1
    17    9   10 2
    18    9   11 1
    19   11   16 2
    20   11   12 1
    21   12   13 2
    22   12   18 1
    23   13   14 1
    24   13   17 1
    25   14   15 1
    26   14   16 1
    27   17   26 1
    28   17   27 1
    29   17   28 1
    30   18   29 1
    31   18   30 1
@<TRIPOS>MOLECULE
ZINC58841069
   32    33     0     0     0
SMALL
USER_CHARGES

@<TRIPOS>ATOM
      1 C1         -0.0187    1.5258    0.0104 C.3       1 <0>        -0.1477
      2 C2          0.0021   -0.0041    0.0020 C.3       1 <0>        -0.1161
      3 H1         -1.0205   -0.3814    0.0098 H         1 <0>         0.1083
      4 C3          0.7182   -0.4975   -1.2568 C.3       1 <0>         0.1442
      5 N1         -0.0549   -0.1139   -2.4405 N.pl3     1 <0>        -0.7437
      6 C4          0.4035   -0.4573   -3.7171 C.ar      1 <0>         0.2297
      7 C5          1.5884   -1.1668   -3.8619 C.ar      1 <0>        -0.1874
      8 C6          2.0423   -1.5067   -5.1221 C.ar      1 <0>        -0.0487
      9 C7          1.3169   -1.1413   -6.2443 C.ar      1 <0>        -0.0299
     10 C8          0.1279   -0.4301   -6.1025 C.ar      1 <0>         0.0808
     11 C9         -0.3289   -0.0939   -4.8389 C.ar      1 <0>        -0.1778
     12 O1         -0.3899   -0.1937   -7.3433 O.3       1 <0>        -0.3109
     13 C10         0.6979   -0.4089   -8.2617 C.3       1 <0>         0.2145
     14 O2          1.5438   -1.3505   -7.5753 O.3       1 <0>        -0.3112
     15 C11         0.7309   -0.5033    1.2229 C.2       1 <0>         0.5231
     16 O3          1.7253   -1.1865    1.0985 O.2       1 <0>        -0.5221
     17 N2          0.2778   -0.1906    2.4531 N.am      1 <0>        -0.5768
     18 N3          0.9385   -0.6431    3.5598 N.3       1 <0>        -0.6037
     19 H2          1.0039    1.9031    0.0027 H         1 <0>         0.0661
     20 H3         -0.5459    1.8868   -0.8726 H         1 <0>         0.0732
     21 H4         -0.5289    1.8773    0.9072 H         1 <0>         0.0620
     22 H5          1.7103   -0.0491   -1.3098 H         1 <0>         0.0719
     23 H6          0.8116   -1.5829   -1.2198 H         1 <0>         0.0750
     24 H7         -0.8847    0.3783   -2.3394 H         1 <0>         0.4002
     25 H8          2.1560   -1.4530   -2.9887 H         1 <0>         0.1379
     26 H9          2.9645   -2.0580   -5.2323 H         1 <0>         0.1354
     27 H10        -1.2528    0.4540   -4.7266 H         1 <0>         0.1326
     28 H11         0.3317   -0.8335   -9.1964 H         1 <0>         0.1299
     29 H12         1.2329    0.5226   -8.4467 H         1 <0>         0.0824
     30 H13        -0.5174    0.3558    2.5526 H         1 <0>         0.4013
     31 H14         1.9069   -0.3604    3.5435 H         1 <0>         0.3483
     32 H15         0.4846   -0.3303    4.4049 H         1 <0>         0.3593
@<TRIPOS>BOND
     1    1    2 1
     2    1   19 1
     3    1   20 1
     4    1   21 1
     5    2    3 1
     6    2    4 1
     7    2   15 1
     8    4    5 1
     9    4   22 1
    10    4   23 1
    11    5    6 1
    12    5   24 1
    13    6   11 ar
    14    6    7 ar
    15    7    8 ar
    16    7   25 1
    17    8    9 ar
    18    8   26 1
    19    9   14 1
    20    9   10 ar
    21   10   11 ar
    22   10   12 1
    23   11   27 1
    24   12   13 1
    25   13   14 1
    26   13   28 1
    27   13   29 1
    28   15   16 2
    29   15   17 am
    30   17   18 1
    31   17   30 1
    32   18   31 1
    33   18   32 1
@<TRIPOS>MOLECULE
ZINC66056652
   35    35     0     0     0
SMALL
USER_CHARGES

@<TRIPOS>ATOM
      1 C1         -0.0187    1.5258    0.0104 C.3       1 <0>        -0.1662
      2 C2          0.0021   -0.0041    0.0020 C.3       1 <0>         0.1372
      3 C3          0.7421   -0.5109    1.2415 C.3       1 <0>        -0.1615
      4 N1         -1.3723   -0.5112    0.0124 N.am      1 <0>        -0.7243
      5 C4         -2.0508   -0.6427   -1.1446 C.2       1 <0>         0.5151
      6 O1         -1.5236   -0.3413   -2.1944 O.2       1 <0>        -0.5101
      7 C5         -3.4646   -1.1643   -1.1339 C.3       1 <0>         0.0396
      8 O2         -3.9650   -1.2118   -2.4716 O.3       1 <0>        -0.2851
      9 C6         -5.2361   -1.6627   -2.6393 C.ar      1 <0>         0.1256
     10 C7         -5.9876   -2.0460   -1.5365 C.ar      1 <0>        -0.1854
     11 C8         -7.2811   -2.5053   -1.7010 C.ar      1 <0>        -0.0827
     12 C9         -7.8339   -2.5865   -2.9629 C.ar      1 <0>        -0.1261
     13 C10        -7.0862   -2.2035   -4.0774 C.ar      1 <0>        -0.0885
     14 C11        -5.7830   -1.7343   -3.9093 C.ar      1 <0>        -0.0855
     15 C12        -7.6750   -2.2895   -5.4310 C.2       1 <0>         0.5601
     16 O3         -7.0219   -1.9554   -6.4002 O.2       1 <0>        -0.5163
     17 N2         -8.9358   -2.7384   -5.5902 N.am      1 <0>        -0.5731
     18 N3         -9.4797   -2.8179   -6.8407 N.3       1 <0>        -0.6011
     19 H1          1.0039    1.9031    0.0027 H         1 <0>         0.0688
     20 H2         -0.5459    1.8868   -0.8726 H         1 <0>         0.0615
     21 H3         -0.5289    1.8773    0.9072 H         1 <0>         0.0578
     22 H4          0.5123   -0.3556   -0.8948 H         1 <0>         0.0906
     23 H5          0.2319   -0.1594    2.1383 H         1 <0>         0.0622
     24 H6          0.7568   -1.6008    1.2356 H         1 <0>         0.0627
     25 H7          1.7647   -0.1336    1.2338 H         1 <0>         0.0759
     26 H8         -1.7940   -0.7522    0.8520 H         1 <0>         0.4012
     27 H9         -3.4790   -2.1662   -0.7048 H         1 <0>         0.0955
     28 H10        -4.0912   -0.5035   -0.5349 H         1 <0>         0.0956
     29 H11        -5.5600   -1.9853   -0.5466 H         1 <0>         0.1342
     30 H12        -7.8607   -2.8020   -0.8393 H         1 <0>         0.1353
     31 H13        -8.8444   -2.9465   -3.0879 H         1 <0>         0.1275
     32 H14        -5.2012   -1.4320   -4.7675 H         1 <0>         0.1488
     33 H15        -9.4570   -3.0051   -4.8168 H         1 <0>         0.4012
     34 H16        -8.9074   -3.3845   -7.4486 H         1 <0>         0.3495
     35 H17       -10.4246   -3.1696   -6.8023 H         1 <0>         0.3599
@<TRIPOS>BOND
     1    1    2 1
     2    1   19 1
     3    1   20 1
     4    1   21 1
     5    2    3 1
     6    2    4 1
     7    2   22 1
     8    3   23 1
     9    3   24 1
    10    3   25 1
    11    4    5 am
    12    4   26 1
    13    5    6 2
    14    5    7 1
    15    7    8 1
    16    7   27 1
    17    7   28 1
    18    8    9 1
    19    9   14 ar
    20    9   10 ar
    21   10   11 ar
    22   10   29 1
    23   11   12 ar
    24   11   30 1
    25   12   13 ar
    26   12   31 1
    27   13   14 ar
    28   13   15 1
    29   14   32 1
    30   15   16 2
    31   15   17 am
    32   17   18 1
    33   17   33 1
    34   18   34 1
    35   18   35 1
@<TRIPOS>MOLECULE
ZINC13682827
   29    30     0     0     0
SMALL
USER_CHARGES

@<TRIPOS>ATOM
      1 C1         -0.0184    1.5028    0.0103 C.3       1 <0>        -0.1051
      2 C2          0.0021   -0.0041    0.0020 C.2       1 <0>        -0.0629
      3 C3          0.0059   -0.6770   -1.1598 C.2       1 <0>        -0.1668
      4 S1          0.0321   -2.3845   -0.6478 S.3       1 <0>         0.1490
      5 C4          0.0372   -2.1444    1.1101 C.2       1 <0>         0.1023
      6 C5          0.0240   -0.7448    1.2495 C.2       1 <0>        -0.2468
      7 C6          0.0292   -0.2565    2.5968 C.2       1 <0>         0.5591
      8 N1          0.0506   -1.1417    3.6105 N.am      1 <0>        -0.6346
      9 C7          0.0672   -2.4797    3.3795 C.2       1 <0>         0.3945
     10 N2          0.0536   -2.9560    2.1634 N.2       1 <0>        -0.4255
     11 C8          0.0914   -3.4321    4.5472 C.3       1 <0>        -0.0887
     12 C9          0.1065   -4.8505    4.0383 C.2       1 <0>         0.5086
     13 O1          0.0984   -5.0667    2.8449 O.2       1 <0>        -0.4622
     14 N3          0.1290   -5.8787    4.9093 N.am      1 <0>        -0.5831
     15 N4          0.1427   -7.1644    4.4480 N.3       1 <0>        -0.6014
     16 O2          0.0149    0.9415    2.8211 O.2       1 <0>        -0.5223
     17 C10        -0.0090   -0.1219   -2.5608 C.3       1 <0>        -0.0677
     18 H1          1.0042    1.8801    0.0026 H         1 <0>         0.0714
     19 H2         -0.5455    1.8639   -0.8728 H         1 <0>         0.0673
     20 H3         -0.5286    1.8543    0.9071 H         1 <0>         0.0818
     21 H4          0.9845   -3.2511    5.1452 H         1 <0>         0.1320
     22 H5         -0.7952   -3.2760    5.1618 H         1 <0>         0.1345
     23 H6          0.1355   -5.7058    5.8637 H         1 <0>         0.3991
     24 H7          0.9205   -7.3162    3.8234 H         1 <0>         0.3477
     25 H8          0.1590   -7.8227    5.2124 H         1 <0>         0.3586
     26 H9          1.0149    0.0265   -2.9037 H         1 <0>         0.0812
     27 H10        -0.5163   -0.8228   -3.2239 H         1 <0>         0.0762
     28 H11        -0.5366    0.8319   -2.5681 H         1 <0>         0.0845
     29 H12         0.0546   -0.8172    4.5246 H         1 <0>         0.4192
@<TRIPOS>BOND
     1    1    2 1
     2    1   18 1
     3    1   19 1
     4    1   20 1
     5    2    6 1
     6    2    3 2
     7    3    4 1
     8    3   17 1
     9    4    5 1
    10    5   10 1
    11    5    6 2
    12    6    7 1
    13    7    8 am
    14    7   16 2
    15    8    9 1
    16    8   29 1
    17    9   10 2
    18    9   11 1
    19   11   12 1
    20   11   21 1
    21   11   22 1
    22   12   13 2
    23   12   14 am
    24   14   15 1
    25   14   23 1
    26   15   24 1
    27   15   25 1
    28   17   26 1
    29   17   27 1
    30   17   28 1
@<TRIPOS>MOLECULE
ZINC42500557
   38    39     0     0     0
SMALL
USER_CHARGES

@<TRIPOS>ATOM
      1 C1         -0.0178    1.4608    0.0101 C.3       1 <0>         0.1126
      2 N1          0.0021   -0.0041    0.0020 N.pl3     1 <0>        -0.6630
      3 C2          0.0241   -0.7433    1.2666 C.3       1 <0>         0.1160
      4 C3         -1.4105   -1.0203    1.7205 C.3       1 <0>         0.0818
      5 H1         -1.9619   -0.0816    1.7754 H         1 <0>         0.1028
      6 C4         -1.3903   -1.6812    3.1003 C.3       1 <0>         0.0292
      7 O1         -2.7294   -1.8339    3.5750 O.3       1 <0>        -0.3811
      8 C5         -2.8233   -2.4448    4.8634 C.3       1 <0>         0.0296
      9 O2         -2.0465   -1.8923    0.7840 O.3       1 <0>        -0.5338
     10 C6         -0.0000   -0.6975   -1.2142 C.ar      1 <0>         0.1080
     11 C7          1.1989   -1.0281   -1.8226 C.ar      1 <0>        -0.0889
     12 C8          1.2030   -1.7177   -3.0331 C.ar      1 <0>         0.0709
     13 C9         -0.0085   -2.0666   -3.6164 C.ar      1 <0>        -0.0863
     14 C10        -1.2049   -1.7406   -3.0153 C.ar      1 <0>        -0.1566
     15 C11        -1.2097   -1.0585   -1.8070 C.ar      1 <0>         0.2226
     16 N2         -2.4241   -0.7292   -1.1880 N.pl3     1 <0>        -0.8404
     17 C12         0.3300   -2.7924   -4.8986 C.3       1 <0>        -0.1168
     18 C13         1.8433   -2.7920   -4.9344 C.2       1 <0>         0.5260
     19 O3          2.5435   -3.2743   -5.7995 O.2       1 <0>        -0.5136
     20 N3          2.2654   -2.1562   -3.8286 N.am      1 <0>        -0.6571
     21 H2          1.0048    1.8381    0.0023 H         1 <0>         0.0367
     22 H3         -0.5450    1.8219   -0.8730 H         1 <0>         0.0569
     23 H4         -0.5280    1.8123    0.9069 H         1 <0>         0.0560
     24 H5          0.5496   -1.6879    1.1262 H         1 <0>         0.0705
     25 H6          0.5371   -0.1514    2.0246 H         1 <0>         0.0760
     26 H7         -0.9168   -2.6603    3.0272 H         1 <0>         0.0515
     27 H8         -0.8278   -1.0565    3.7942 H         1 <0>         0.0558
     28 H9         -2.3795   -3.4397    4.8270 H         1 <0>         0.0411
     29 H10        -2.2905   -1.8359    5.5939 H         1 <0>         0.0409
     30 H11        -3.8713   -2.5247    5.1522 H         1 <0>         0.0876
     31 H12        -1.6086   -2.7486    0.6838 H         1 <0>         0.3673
     32 H13         2.1333   -0.7504   -1.3577 H         1 <0>         0.1216
     33 H14        -2.1380   -2.0192   -3.4824 H         1 <0>         0.1266
     34 H15        -2.4244   -0.2491   -0.3452 H         1 <0>         0.4036
     35 H16        -3.2639   -0.9816   -1.6027 H         1 <0>         0.3918
     36 H17        -0.0509   -3.8133   -4.8714 H         1 <0>         0.1222
     37 H18        -0.0723   -2.2565   -5.7583 H         1 <0>         0.1222
     38 H19         3.1997   -2.0178   -3.6076 H         1 <0>         0.4097
@<TRIPOS>BOND
     1    1    2 1
     2    1   21 1
     3    1   22 1
     4    1   23 1
     5    2    3 1
     6    2   10 1
     7    3    4 1
     8    3   24 1
     9    3   25 1
    10    4    5 1
    11    4    6 1
    12    4    9 1
    13    6    7 1
    14    6   26 1
    15    6   27 1
    16    7    8 1
    17    8   28 1
    18    8   29 1
    19    8   30 1
    20    9   31 1
    21   10   15 ar
    22   10   11 ar
    23   11   12 ar
    24   11   32 1
    25   12   20 1
    26   12   13 ar
    27   13   14 ar
    28   13   17 1
    29   14   15 ar
    30   14   33 1
    31   15   16 1
    32   16   34 1
    33   16   35 1
    34   17   18 1
    35   17   36 1
    36   17   37 1
    37   18   19 2
    38   18   20 am
    39   20   38 1
@<TRIPOS>MOLECULE
ZINC48966320
   42    42     0     0     0
SMALL
USER_CHARGES

@<TRIPOS>ATOM
      1 C1          0.2799    1.3837    0.2318 C.3       1 <0>        -0.1756
      2 C2          0.1744   -0.1171    0.1454 C.2       1 <0>         0.5085
      3 O1          1.1794   -0.7958    0.1302 O.2       1 <0>        -0.5257
      4 N1         -1.0368   -0.7051    0.0851 N.am      1 <0>        -0.7268
      5 C3         -1.1390   -2.1536   -0.1090 C.3       1 <0>         0.1670
      6 C4         -0.5420   -2.8738    1.1017 C.3       1 <0>        -0.1163
      7 C5         -1.3094   -2.4728    2.3631 C.3       1 <0>        -0.1152
      8 C6         -2.7806   -2.8645    2.2112 C.3       1 <0>        -0.1235
      9 C7         -3.3776   -2.1443    1.0005 C.3       1 <0>        -0.1165
     10 C8         -2.6102   -2.5453   -0.2610 C.3       1 <0>        -0.1198
     11 C9         -0.3832   -2.5485   -1.3515 C.2       1 <0>         0.5243
     12 O2          0.2160   -3.6024   -1.3875 O.2       1 <0>        -0.5280
     13 N2         -0.3730   -1.7306   -2.4226 N.am      1 <0>        -0.7260
     14 C10         0.4499   -2.0610   -3.5888 C.3       1 <0>         0.1190
     15 C11         0.2812   -0.9773   -4.6556 C.3       1 <0>        -0.1160
     16 C12         1.1406   -1.3224   -5.8735 C.3       1 <0>        -0.1401
     17 C13         0.9744   -0.2550   -6.9242 C.2       1 <0>         0.5170
     18 O3          0.2408    0.6888   -6.7192 O.2       1 <0>        -0.5441
     19 N3          1.6410   -0.3492   -8.0918 N.am      1 <0>        -0.8572
     20 H1          1.3302    1.6724    0.2718 H         1 <0>         0.0937
     21 H2         -0.1870    1.8319   -0.6453 H         1 <0>         0.0895
     22 H3         -0.2273    1.7324    1.1314 H         1 <0>         0.0891
     23 H4         -1.8409   -0.1693    0.1701 H         1 <0>         0.4043
     24 H5         -0.6180   -3.9515    0.9573 H         1 <0>         0.0805
     25 H6          0.5061   -2.5947    1.2099 H         1 <0>         0.0855
     26 H7         -0.8840   -2.9859    3.2257 H         1 <0>         0.0667
     27 H8         -1.2333   -1.3951    2.5075 H         1 <0>         0.0612
     28 H9         -2.8566   -3.9422    2.0668 H         1 <0>         0.0657
     29 H10        -3.3273   -2.5788    3.1099 H         1 <0>         0.0655
     30 H11        -4.4257   -2.4234    0.8922 H         1 <0>         0.0723
     31 H12        -3.3016   -1.0666    1.1449 H         1 <0>         0.0636
     32 H13        -3.0356   -2.0322   -1.1235 H         1 <0>         0.0742
     33 H14        -2.6862   -3.6230   -0.4054 H         1 <0>         0.0876
     34 H15        -0.9105   -0.9232   -2.4214 H         1 <0>         0.3983
     35 H16         1.4968   -2.1173   -3.2905 H         1 <0>         0.0690
     36 H17         0.1356   -3.0225   -3.9947 H         1 <0>         0.0692
     37 H18        -0.7657   -0.9210   -4.9539 H         1 <0>         0.0773
     38 H19         0.5955   -0.0158   -4.2497 H         1 <0>         0.0769
     39 H20         2.1875   -1.3787   -5.5752 H         1 <0>         0.0996
     40 H21         0.8263   -2.2839   -6.2793 H         1 <0>         0.0995
     41 H22         2.2277   -1.1040   -8.2558 H         1 <0>         0.4030
     42 H23         1.5340    0.3379   -8.7682 H         1 <0>         0.4025
@<TRIPOS>BOND
     1    1    2 1
     2    1   20 1
     3    1   21 1
     4    1   22 1
     5    2    3 2
     6    2    4 am
     7    4    5 1
     8    4   23 1
     9    5   10 1
    10    5    6 1
    11    5   11 1
    12    6    7 1
    13    6   24 1
    14    6   25 1
    15    7    8 1
    16    7   26 1
    17    7   27 1
    18    8    9 1
    19    8   28 1
    20    8   29 1
    21    9   10 1
    22    9   30 1
    23    9   31 1
    24   10   32 1
    25   10   33 1
    26   11   12 2
    27   11   13 am
    28   13   14 1
    29   13   34 1
    30   14   15 1
    31   14   35 1
    32   14   36 1
    33   15   16 1
    34   15   37 1
    35   15   38 1
    36   16   17 1
    37   16   39 1
    38   16   40 1
    39   17   18 2
    40   17   19 am
    41   19   41 1
    42   19   42 1
@<TRIPOS>MOLECULE
ZINC55305361
   33    33     0     0     0
SMALL
USER_CHARGES

@<TRIPOS>ATOM
      1 C1         -0.0187    1.5258    0.0104 C.3       1 <0>        -0.1640
      2 C2          0.0021   -0.0041    0.0020 C.3       1 <0>         0.2420
      3 C3          0.7421   -0.5109    1.2415 C.3       1 <0>        -0.1535
      4 C4         -1.4117   -0.5257    0.0127 C.2       1 <0>         0.3599
      5 N1         -1.8444   -1.1983    1.0272 N.2       1 <0>        -0.4006
      6 O1         -3.1728   -1.6884    1.0373 O.3       1 <0>        -0.4237
      7 N2         -2.2425   -0.2853   -1.0591 N.pl3     1 <0>        -0.8682
      8 N3          0.6878   -0.4765   -1.2033 N.am      1 <0>        -0.7238
      9 C5          1.9715   -0.1323   -1.4270 C.2       1 <0>         0.5307
     10 O2          2.5590    0.5687   -0.6305 O.2       1 <0>        -0.4975
     11 C6          2.6769   -0.6183   -2.6669 C.3       1 <0>         0.0374
     12 H1          2.6148   -1.7052   -2.7189 H         1 <0>         0.0966
     13 C7          2.0141   -0.0079   -3.9052 C.3       1 <0>         0.0371
     14 O3          2.7570   -0.3842   -5.0687 O.3       1 <0>        -0.3712
     15 C8          4.1300    0.0161   -5.0257 C.3       1 <0>         0.0195
     16 C9          4.7927   -0.5942   -3.7874 C.3       1 <0>         0.0232
     17 O4          4.0502   -0.2193   -2.6232 O.3       1 <0>        -0.3488
     18 H2          1.0039    1.9031    0.0027 H         1 <0>         0.0940
     19 H3         -0.5459    1.8868   -0.8726 H         1 <0>         0.0605
     20 H4         -0.5289    1.8773    0.9072 H         1 <0>         0.0747
     21 H5          0.2319   -0.1594    2.1383 H         1 <0>         0.0768
     22 H6          0.7568   -1.6008    1.2356 H         1 <0>         0.0644
     23 H7          1.7647   -0.1336    1.2338 H         1 <0>         0.0848
     24 H8         -3.4050   -2.1791    1.8376 H         1 <0>         0.4032
     25 H9         -1.9176    0.2197   -1.8209 H         1 <0>         0.3965
     26 H10        -3.1525   -0.6211   -1.0522 H         1 <0>         0.4100
     27 H11         0.2179   -1.0371   -1.8404 H         1 <0>         0.4024
     28 H12         0.9920   -0.3768   -3.9906 H         1 <0>         0.1092
     29 H13         2.0041    1.0783   -3.8150 H         1 <0>         0.0704
     30 H14         4.6401   -0.3354   -5.9225 H         1 <0>         0.1114
     31 H15         4.1910    1.1031   -4.9731 H         1 <0>         0.0664
     32 H16         4.8028   -1.6804   -3.8776 H         1 <0>         0.0658
     33 H17         5.8148   -0.2253   -3.7020 H         1 <0>         0.1144
@<TRIPOS>BOND
     1    1    2 1
     2    1   18 1
     3    1   19 1
     4    1   20 1
     5    2    3 1
     6    2    4 1
     7    2    8 1
     8    3   21 1
     9    3   22 1
    10    3   23 1
    11    4    5 2
    12    4    7 1
    13    5    6 1
    14    6   24 1
    15    7   25 1
    16    7   26 1
    17    8    9 am
    18    8   27 1
    19    9   10 2
    20    9   11 1
    21   11   12 1
    22   11   17 1
    23   11   13 1
    24   13   14 1
    25   13   28 1
    26   13   29 1
    27   14   15 1
    28   15   16 1
    29   15   30 1
    30   15   31 1
    31   16   17 1
    32   16   32 1
    33   16   33 1
@<TRIPOS>MOLECULE
ZINC63176347
   31    31     0     0     0
SMALL
USER_CHARGES

@<TRIPOS>ATOM
      1 C1         -0.0188    1.5384    0.0105 C.3       1 <0>        -0.1222
      2 C2          1.4774    1.9387   -0.0016 C.3       1 <0>        -0.1418
      3 C3          2.1065    0.8811   -0.9423 C.3       1 <0>         0.0125
      4 H1          1.9461    1.1545   -1.9852 H         1 <0>         0.1634
      5 C4          1.3534   -0.4220   -0.6038 C.3       1 <0>         0.1321
      6 H2          1.1918   -1.0060   -1.5098 H         1 <0>         0.1244
      7 C5          0.0021   -0.0041    0.0020 C.3       1 <0>        -0.1416
      8 N1          2.1192   -1.2062    0.3683 N.pl3     1 <0>        -1.1382
      9 S1          2.1056   -2.8604    0.2925 S.o2      1 <0>         2.5766
     10 O1          2.9187   -3.2799    1.3797 O.2       1 <0>        -0.9481
     11 O2          0.7291   -3.2096    0.2404 O.2       1 <0>        -0.9423
     12 C6          2.9120   -3.2615   -1.2821 C.3       1 <0>        -0.5697
     13 C7          2.9559   -4.7805   -1.4602 C.3       1 <0>        -0.1845
     14 C8          3.6258   -5.1138   -2.7683 C.2       1 <0>         0.5023
     15 O3          4.0307   -4.2193   -3.4912 O.co2     1 <0>        -0.6974
     16 O4          3.7630   -6.2779   -3.1038 O.co2     1 <0>        -0.6795
     17 N2          3.5418    0.7354   -0.6652 N.4       1 <0>        -0.6320
     18 H3         -0.5054    1.9084    0.9130 H         1 <0>         0.0889
     19 H4         -0.5225    1.9180   -0.8785 H         1 <0>         0.0848
     20 H5          1.6056    2.9420   -0.4079 H         1 <0>         0.0999
     21 H6          1.9042    1.8684    0.9989 H         1 <0>         0.0904
     22 H7         -0.0844   -0.3843    1.0199 H         1 <0>         0.0929
     23 H8         -0.8154   -0.3852   -0.6101 H         1 <0>         0.0959
     24 H9          2.6342   -0.7564    1.0563 H         1 <0>         0.4068
     25 H10         2.3494   -2.8157   -2.1024 H         1 <0>         0.1298
     26 H11         3.9278   -2.8663   -1.2811 H         1 <0>         0.1283
     27 H12         3.5184   -5.2264   -0.6399 H         1 <0>         0.0795
     28 H13         1.9401   -5.1757   -1.4612 H         1 <0>         0.0804
     29 H14         3.6726    0.4651    0.2981 H         1 <0>         0.4282
     30 H15         3.9307    0.0269   -1.2691 H         1 <0>         0.4418
     31 H16         4.0078    1.6142   -0.8342 H         1 <0>         0.4383
@<TRIPOS>BOND
     1    1    7 1
     2    1    2 1
     3    1   18 1
     4    1   19 1
     5    2    3 1
     6    2   20 1
     7    2   21 1
     8    3    4 1
     9    3    5 1
    10    3   17 1
    11    5    6 1
    12    5    7 1
    13    5    8 1
    14    7   22 1
    15    7   23 1
    16    8    9 1
    17    8   24 1
    18    9   10 2
    19    9   11 2
    20    9   12 1
    21   12   13 1
    22   12   25 1
    23   12   26 1
    24   13   14 1
    25   13   27 1
    26   13   28 1
    27   14   15 2
    28   14   16 1
    29   17   29 1
    30   17   30 1
    31   17   31 1
@<TRIPOS>MOLECULE
ZINC20329238
   28    30     0     0     0
SMALL
USER_CHARGES
3-cyclopropyl-2-hydrazino-quinazolin-4-one
@<TRIPOS>ATOM
      1 C1          2.3725    1.4222   -0.1802 C.ar      1 <0>        -0.1628
      2 C2          1.1577    2.0863   -0.0694 C.ar      1 <0>        -0.0614
      3 C3         -0.0161    1.3934    0.0277 C.ar      1 <0>        -0.1319
      4 C4          0.0026   -0.0042    0.0138 C.ar      1 <0>         0.2064
      5 C5          1.2405   -0.6765   -0.1008 C.ar      1 <0>        -0.2374
      6 C6          2.4230    0.0556   -0.1974 C.ar      1 <0>        -0.0292
      7 C7          1.2332   -2.1455   -0.1130 C.2       1 <0>         0.5628
      8 O1          2.2669   -2.7810   -0.2093 O.2       1 <0>        -0.5113
      9 N1          0.0348   -2.7661   -0.0135 N.am      1 <0>        -0.5567
     10 C8         -1.1155   -2.0400    0.0934 C.2       1 <0>         0.6383
     11 N2         -1.1359   -0.7308    0.1071 N.2       1 <0>        -0.5741
     12 N3         -2.3069   -2.7135    0.1918 N.pl3     1 <0>        -0.5724
     13 N4         -3.4776   -2.0181    0.3007 N.3       1 <0>        -0.5576
     14 C9         -0.0282   -4.2298   -0.0212 C.3       1 <0>        -0.0548
     15 C10         0.7790   -4.9659   -1.0925 C.3       1 <0>        -0.1050
     16 C11        -0.7470   -4.8998   -1.1940 C.3       1 <0>        -0.1245
     17 H1          3.2873    1.9914   -0.2552 H         1 <0>         0.1288
     18 H2          1.1406    3.1661   -0.0588 H         1 <0>         0.1305
     19 H3         -0.9537    1.9229    0.1102 H         1 <0>         0.1359
     20 H4          3.3719   -0.4526   -0.2849 H         1 <0>         0.1323
     21 H5         -2.3193   -3.8134    0.1830 H         1 <0>         0.4304
     22 H6         -4.3185   -2.7241    0.3681 H         1 <0>         0.3570
     23 H7         -3.4500   -1.3932    1.2055 H         1 <0>         0.3429
     24 H8         -0.1025   -4.2581    1.0759 H         1 <0>         0.1418
     25 H9          1.4758   -4.2637   -1.5736 H         1 <0>         0.1228
     26 H10         1.3470   -5.7843   -0.6260 H         1 <0>         0.1225
     27 H11        -1.4399   -5.6636   -0.8113 H         1 <0>         0.1187
     28 H12        -1.3111   -4.1431   -1.7590 H         1 <0>         0.1081
@<TRIPOS>BOND
     1    1    6 ar
     2    1    2 ar
     3    1   17 1
     4    2    3 ar
     5    2   18 1
     6    3    4 ar
     7    3   19 1
     8    4   11 1
     9    4    5 ar
    10    5    6 ar
    11    5    7 1
    12    6   20 1
    13    7    8 2
    14    7    9 am
    15    9   10 1
    16    9   14 1
    17   10   11 2
    18   10   12 1
    19   12   13 1
    20   12   21 1
    21   13   22 1
    22   13   23 1
    23   14   16 1
    24   14   15 1
    25   14   24 1
    26   15   16 1
    27   15   25 1
    28   15   26 1
    29   16   27 1
    30   16   28 1
@<TRIPOS>MOLECULE
ZINC40168087
   20    20     0     0     0
SMALL
USER_CHARGES

@<TRIPOS>ATOM
      1 C1         -0.0229    1.8384    0.0122 C.3       1 <0>        -0.5919
      2 C2          1.5077    2.0949   -0.0011 C.3       1 <0>         0.1609
      3 H1          1.8327    2.2771   -1.0254 H         1 <0>         0.1618
      4 C3          2.2448    0.9156    0.5474 C.2       1 <0>        -0.0701
      5 C4          1.6556   -0.2488    0.6246 C.2       1 <0>        -0.6342
      6 S1          0.0021   -0.0041    0.0020 S.o2      1 <0>         2.4430
      7 O1          0.0082   -0.5078   -1.3267 O.2       1 <0>        -0.9136
      8 O2         -0.8689   -0.5324    0.9928 O.2       1 <0>        -0.9241
      9 N1          1.8072    3.2727    0.8170 N.pl3     1 <0>        -0.6732
     10 C5          2.9227    3.9913    0.5809 C.2       1 <0>         0.5704
     11 S2          3.9897    3.5277   -0.6751 S.2       1 <0>        -0.5862
     12 N2          3.1981    5.0748    1.3335 N.pl3     1 <0>        -0.5510
     13 O3          4.3701    5.8298    1.0855 O.3       1 <0>        -0.2652
     14 H2         -0.4860    2.2274    0.9190 H         1 <0>         0.1534
     15 H3         -0.5032    2.2370   -0.8815 H         1 <0>         0.1637
     16 H4          3.2663    1.0258    0.8802 H         1 <0>         0.1508
     17 H5          2.0827   -1.1707    0.9907 H         1 <0>         0.1940
     18 H6          1.2026    3.5353    1.5287 H         1 <0>         0.4049
     19 H7          2.5936    5.3375    2.0452 H         1 <0>         0.4104
     20 H8          4.4820    6.5877    1.6756 H         1 <0>         0.3960
@<TRIPOS>BOND
     1    1    6 1
     2    1    2 1
     3    1   14 1
     4    1   15 1
     5    2    3 1
     6    2    4 1
     7    2    9 1
     8    4    5 2
     9    4   16 1
    10    5    6 1
    11    5   17 1
    12    6    7 2
    13    6    8 2
    14    9   10 1
    15    9   18 1
    16   10   11 2
    17   10   12 1
    18   12   13 1
    19   12   19 1
    20   13   20 1
@<TRIPOS>MOLECULE
ZINC49127650
   37    37     0     0     0
SMALL
USER_CHARGES

@<TRIPOS>ATOM
      1 C1         -0.0187    1.5258    0.0104 C.3       1 <0>        -0.1606
      2 C2          0.0021   -0.0041    0.0020 C.3       1 <0>         0.1441
      3 H1          0.5293   -0.3651    0.8851 H         1 <0>         0.1155
      4 C3          0.7074   -0.4901   -1.2379 C.2       1 <0>         0.5156
      5 O1          0.1200   -1.1910   -2.0344 O.2       1 <0>        -0.5303
      6 N1          1.9912   -0.1458   -1.4616 N.am      1 <0>        -0.7177
      7 C4          2.6769   -0.6183   -2.6669 C.3       1 <0>         0.1681
      8 C5          1.9369   -0.1114   -3.9064 C.3       1 <0>        -0.1644
      9 C6          4.1123   -0.0887   -2.6777 C.3       1 <0>        -0.1571
     10 C7          2.6976   -2.1481   -2.6753 C.3       1 <0>        -0.1653
     11 N2         -1.3723   -0.5112    0.0124 N.am      1 <0>        -0.7289
     12 C8         -2.0286   -0.6552    1.1807 C.2       1 <0>         0.7130
     13 O2         -1.4800   -0.3643    2.2261 O.2       1 <0>        -0.5881
     14 N3         -3.2931   -1.1217    1.1903 N.am      1 <0>        -0.7155
     15 C9         -4.0065   -1.2783    2.4602 C.3       1 <0>         0.0987
     16 C10        -4.8150   -2.5613    2.6628 C.3       1 <0>        -0.1951
     17 C11        -5.5353   -1.2332    2.4219 C.3       1 <0>        -0.1901
     18 H2          1.0039    1.9031    0.0027 H         1 <0>         0.0714
     19 H3         -0.5459    1.8868   -0.8726 H         1 <0>         0.0635
     20 H4         -0.5289    1.8773    0.9072 H         1 <0>         0.0767
     21 H5          2.4610    0.4148   -0.8245 H         1 <0>         0.4021
     22 H6          1.9221    0.9785   -3.9004 H         1 <0>         0.0549
     23 H7          2.4471   -0.4629   -4.8032 H         1 <0>         0.0646
     24 H8          0.9143   -0.4887   -3.8987 H         1 <0>         0.0774
     25 H9          4.6394   -0.4498   -1.7947 H         1 <0>         0.0634
     26 H10         4.6224   -0.4402   -3.5745 H         1 <0>         0.0756
     27 H11         4.0975    1.0012   -2.6718 H         1 <0>         0.0634
     28 H12         1.6750   -2.5254   -2.6676 H         1 <0>         0.0775
     29 H13         3.2078   -2.4996   -3.5721 H         1 <0>         0.0648
     30 H14         3.2248   -2.5092   -1.7922 H         1 <0>         0.0549
     31 H15        -1.8100   -0.7432   -0.8215 H         1 <0>         0.4061
     32 H16        -3.7307   -1.3538    0.3563 H         1 <0>         0.3990
     33 H17        -3.5121   -0.8515    3.3329 H         1 <0>         0.1401
     34 H18        -4.8161   -3.2889    1.8512 H         1 <0>         0.0968
     35 H19        -4.8525   -2.9790    3.6689 H         1 <0>         0.1036
     36 H20        -6.0468   -0.7771    3.2695 H         1 <0>         0.1050
     37 H21        -6.0103   -1.0870    1.4518 H         1 <0>         0.0971
@<TRIPOS>BOND
     1    1    2 1
     2    1   18 1
     3    1   19 1
     4    1   20 1
     5    2    3 1
     6    2    4 1
     7    2   11 1
     8    4    5 2
     9    4    6 am
    10    6    7 1
    11    6   21 1
    12    7    8 1
    13    7    9 1
    14    7   10 1
    15    8   22 1
    16    8   23 1
    17    8   24 1
    18    9   25 1
    19    9   26 1
    20    9   27 1
    21   10   28 1
    22   10   29 1
    23   10   30 1
    24   11   12 am
    25   11   31 1
    26   12   13 2
    27   12   14 am
    28   14   15 1
    29   14   32 1
    30   15   17 1
    31   15   16 1
    32   15   33 1
    33   16   17 1
    34   16   34 1
    35   16   35 1
    36   17   36 1
    37   17   37 1
@<TRIPOS>MOLECULE
ZINC54335065
   33    33     0     0     0
SMALL
USER_CHARGES

@<TRIPOS>ATOM
      1 C1         -0.0187    1.5258    0.0104 C.3       1 <0>        -0.1232
      2 C2          0.0021   -0.0041    0.0020 C.3       1 <0>        -0.1748
      3 H1         -1.0205   -0.3814    0.0098 H         1 <0>         0.0694
      4 C3          0.7182   -0.4975   -1.2568 C.3       1 <0>         0.1419
      5 N1         -0.0549   -0.1139   -2.4405 N.am      1 <0>        -0.7093
      6 C4          0.3867   -0.4447   -3.6702 C.2       1 <0>         0.5110
      7 O1          1.4241   -1.0600   -3.7967 O.2       1 <0>        -0.5365
      8 C5         -0.4086   -0.0501   -4.8879 C.3       1 <0>        -0.1331
      9 H2         -1.4009   -0.4982   -4.8355 H         1 <0>         0.1181
     10 C6         -0.5384    1.4749   -4.9418 C.3       1 <0>        -0.1332
     11 C7         -1.2798    1.8693   -6.2224 C.3       1 <0>        -0.1436
     12 C8         -0.5303    1.3080   -7.4326 C.3       1 <0>        -0.0098
     13 N2         -0.4628   -0.1551   -7.3354 N.4       1 <0>        -0.5033
     14 C9          0.3080   -0.5413   -6.1475 C.3       1 <0>         0.0100
     15 C10         0.7309   -0.5033    1.2229 C.2       1 <0>         0.4990
     16 O2          0.3210   -0.2204    2.3358 O.co2     1 <0>        -0.6885
     17 O3          1.7305   -1.1901    1.0978 O.co2     1 <0>        -0.6907
     18 H3          1.0039    1.9031    0.0027 H         1 <0>         0.0496
     19 H4         -0.5459    1.8868   -0.8726 H         1 <0>         0.0323
     20 H5         -0.5289    1.8773    0.9072 H         1 <0>         0.0632
     21 H6          1.7103   -0.0491   -1.3098 H         1 <0>         0.0734
     22 H7          0.8116   -1.5829   -1.2198 H         1 <0>         0.0768
     23 H8         -0.8847    0.3783   -2.3394 H         1 <0>         0.3976
     24 H9         -1.0984    1.8239   -4.0742 H         1 <0>         0.1002
     25 H10         0.4541    1.9254   -4.9417 H         1 <0>         0.0901
     26 H11        -2.2902    1.4610   -6.1985 H         1 <0>         0.0906
     27 H12        -1.3273    2.9558   -6.2955 H         1 <0>         0.1157
     28 H13        -1.0554    1.5871   -8.3461 H         1 <0>         0.1333
     29 H14         0.4797    1.7171   -7.4557 H         1 <0>         0.1313
     30 H15        -1.3970   -0.5299   -7.2647 H         1 <0>         0.4264
     31 H16         1.3004   -0.0934   -6.1983 H         1 <0>         0.1398
     32 H17         0.4016   -1.6267   -6.1118 H         1 <0>         0.1425
     33 H18        -0.0155   -0.5257   -8.1604 H         1 <0>         0.4335
@<TRIPOS>BOND
     1    1    2 1
     2    1   18 1
     3    1   19 1
     4    1   20 1
     5    2    3 1
     6    2    4 1
     7    2   15 1
     8    4    5 1
     9    4   21 1
    10    4   22 1
    11    5    6 am
    12    5   23 1
    13    6    7 2
    14    6    8 1
    15    8    9 1
    16    8   14 1
    17    8   10 1
    18   10   11 1
    19   10   24 1
    20   10   25 1
    21   11   12 1
    22   11   26 1
    23   11   27 1
    24   12   13 1
    25   12   28 1
    26   12   29 1
    27   13   14 1
    28   13   30 1
    29   13   33 1
    30   14   31 1
    31   14   32 1
    32   15   16 2
    33   15   17 1
@<TRIPOS>MOLECULE
ZINC62960583
   37    37     0     0     0
SMALL
USER_CHARGES

@<TRIPOS>ATOM
      1 C1          0.6865   -0.3980    2.3758 C.3       1 <0>        -0.1578
      2 C2          0.3068   -0.0148    0.9441 C.3       1 <0>        -0.1138
      3 C3         -1.0407   -0.6458    0.5876 C.3       1 <0>        -0.0588
      4 C4         -2.1214   -0.1046    1.5263 C.3       1 <0>        -0.1258
      5 C5         -3.4749   -0.7120    1.1443 C.3       1 <0>         0.1052
      6 N1         -3.3531   -2.1762    1.1449 N.am      1 <0>        -0.5741
      7 C6         -2.2875   -2.7968    0.3463 C.3       1 <0>         0.0664
      8 C7         -0.9473   -2.1660    0.7372 C.3       1 <0>        -0.1261
      9 C8         -4.2026   -2.9356    1.8648 C.2       1 <0>         0.5142
     10 O1         -4.9758   -2.4125    2.6401 O.2       1 <0>        -0.5243
     11 C9         -4.1923   -4.4218    1.7082 C.2       1 <0>         0.5081
     12 O2         -3.5095   -4.9365    0.8471 O.2       1 <0>        -0.4994
     13 N2         -4.9414   -5.1906    2.5233 N.am      1 <0>        -0.5443
     14 N3         -4.9320   -6.5490    2.3802 N.3       1 <0>        -0.5983
     15 C10        -1.4003   -0.2970   -0.8581 C.3       1 <0>        -0.1194
     16 C11        -1.4031    1.2232   -1.0303 C.3       1 <0>        -0.1567
     17 H1          1.6375    0.0666    2.6362 H         1 <0>         0.0526
     18 H2         -0.0867   -0.0521    3.0618 H         1 <0>         0.0554
     19 H3          0.7793   -1.4816    2.4495 H         1 <0>         0.0555
     20 H4          0.2321    1.0698    0.8659 H         1 <0>         0.0664
     21 H5          1.0709   -0.3770    0.2563 H         1 <0>         0.0629
     22 H6         -1.8788   -0.3741    2.5542 H         1 <0>         0.0711
     23 H7         -2.1713    0.9806    1.4363 H         1 <0>         0.0811
     24 H8         -4.2296   -0.4078    1.8695 H         1 <0>         0.0945
     25 H9         -3.7615   -0.3696    0.1500 H         1 <0>         0.0775
     26 H10        -2.2588   -3.8682    0.5448 H         1 <0>         0.1382
     27 H11        -2.4772   -2.6244   -0.7132 H         1 <0>         0.0735
     28 H12        -0.1615   -2.5481    0.0856 H         1 <0>         0.0783
     29 H13        -0.7157   -2.4162    1.7725 H         1 <0>         0.0689
     30 H14        -5.4871   -4.7792    3.2116 H         1 <0>         0.4152
     31 H15        -3.9931   -6.9130    2.4452 H         1 <0>         0.3522
     32 H16        -5.5377   -6.9882    3.0571 H         1 <0>         0.3659
     33 H17        -0.6653   -0.7376   -1.5317 H         1 <0>         0.0640
     34 H18        -2.3894   -0.6910   -1.0916 H         1 <0>         0.0654
     35 H19        -0.3930    1.6070   -0.8875 H         1 <0>         0.0568
     36 H20        -1.7489    1.4746   -2.0330 H         1 <0>         0.0528
     37 H21        -2.0696    1.6712   -0.2932 H         1 <0>         0.0566
@<TRIPOS>BOND
     1    1    2 1
     2    1   17 1
     3    1   18 1
     4    1   19 1
     5    2    3 1
     6    2   20 1
     7    2   21 1
     8    3    8 1
     9    3    4 1
    10    3   15 1
    11    4    5 1
    12    4   22 1
    13    4   23 1
    14    5    6 1
    15    5   24 1
    16    5   25 1
    17    6    7 1
    18    6    9 am
    19    7    8 1
    20    7   26 1
    21    7   27 1
    22    8   28 1
    23    8   29 1
    24    9   10 2
    25    9   11 1
    26   11   12 2
    27   11   13 am
    28   13   14 1
    29   13   30 1
    30   14   31 1
    31   14   32 1
    32   15   16 1
    33   15   33 1
    34   15   34 1
    35   16   35 1
    36   16   36 1
    37   16   37 1
@<TRIPOS>MOLECULE
ZINC25503323
   23    23     0     0     0
SMALL
USER_CHARGES
(2,2-dimethyl-4-oxo-thiazolidin-3-yl)urea
@<TRIPOS>ATOM
      1 C1         -0.7078    2.0182   -1.2410 C.3       1 <0>        -0.1521
      2 C2         -0.0179    1.4709    0.0101 C.3       1 <0>         0.2092
      3 N1          0.0021   -0.0041    0.0020 N.am      1 <0>        -0.4131
      4 C3          1.1270   -0.6353   -0.3085 C.2       1 <0>         0.5019
      5 O1          1.1822   -1.8466   -0.3313 O.2       1 <0>        -0.4939
      6 C4          2.3441    0.2153   -0.6351 C.3       1 <0>        -0.0943
      7 S1          1.7857    1.8572   -0.0050 S.3       1 <0>        -0.2160
      8 N2         -1.1537   -0.7301    0.3181 N.am      1 <0>        -0.5347
      9 C5         -1.8573   -1.3357   -0.6589 C.2       1 <0>         0.7259
     10 O2         -2.8604   -1.9658   -0.3846 O.2       1 <0>        -0.5821
     11 N3         -1.4491   -1.2429   -1.9400 N.am      1 <0>        -0.8805
     12 C6         -0.6838    2.0047    1.2800 C.3       1 <0>        -0.1485
     13 H1         -1.7797    1.7738   -1.2052 H         1 <0>         0.0774
     14 H2         -0.2578    1.5641   -2.1362 H         1 <0>         0.0686
     15 H3         -0.5818    3.1102   -1.2811 H         1 <0>         0.0919
     16 H4          3.2233   -0.1854   -0.1093 H         1 <0>         0.1490
     17 H5          2.5251    0.1952   -1.7199 H         1 <0>         0.1381
     18 H6         -1.4869   -0.8058    1.3637 H         1 <0>         0.4555
     19 H7         -2.0234   -1.7372   -2.7374 H         1 <0>         0.4413
     20 H8         -0.5417   -0.6729   -2.1882 H         1 <0>         0.4065
     21 H9         -0.1697    1.5968    2.1628 H         1 <0>         0.0789
     22 H10        -1.7401    1.6983    1.2966 H         1 <0>         0.0825
     23 H11        -0.6203    3.1028    1.2935 H         1 <0>         0.0885
@<TRIPOS>BOND
     1    1    2 1
     2    1   13 1
     3    1   14 1
     4    1   15 1
     5    2    7 1
     6    2    3 1
     7    2   12 1
     8    3    4 am
     9    3    8 1
    10    4    5 2
    11    4    6 1
    12    6    7 1
    13    6   16 1
    14    6   17 1
    15    8    9 am
    16    8   18 1
    17    9   10 2
    18    9   11 am
    19   11   19 1
    20   11   20 1
    21   12   21 1
    22   12   22 1
    23   12   23 1
@<TRIPOS>MOLECULE
ZINC39094546
   27    26     0     0     0
SMALL
USER_CHARGES

@<TRIPOS>ATOM
      1 C1          0.7245    1.1219    1.0239 C.3       1 <0>        -0.1855
      2 C2          0.6836   -0.3888    0.7849 C.3       1 <0>         0.1358
      3 C3          1.6577   -1.0827    1.7391 C.3       1 <0>        -0.1852
      4 C4         -0.7337   -0.9069    1.0374 C.3       1 <0>        -0.1403
      5 O1          1.0593   -0.6678   -0.5653 O.3       1 <0>        -0.3596
      6 C5          2.2875   -0.2734   -0.9522 C.2       1 <0>         0.6547
      7 O2          3.0202    0.2923   -0.1646 O.2       1 <0>        -0.5527
      8 N1          2.7041   -0.5060   -2.2126 N.am      1 <0>        -0.6342
      9 C6          3.9469   -0.0023   -2.6487 C.2       1 <0>        -0.1301
     10 C7          4.8931   -0.8505   -3.1273 C.2       1 <0>         0.2297
     11 N2          6.0979   -0.3623   -3.5501 N.pl3     1 <0>        -0.8352
     12 C8          4.2064    1.3783   -2.5879 C.2       1 <0>         0.3705
     13 O3          3.3272    2.1477   -2.2530 O.2       1 <0>        -0.4709
     14 H1          1.7342    1.4909    0.8440 H         1 <0>         0.0888
     15 H2          0.0305    1.6162    0.3441 H         1 <0>         0.0592
     16 H3          0.4380    1.3347    2.0538 H         1 <0>         0.0684
     17 H4          1.3712   -0.8699    2.7690 H         1 <0>         0.0697
     18 H5          1.6286   -2.1589    1.5688 H         1 <0>         0.0583
     19 H6          2.6674   -0.7136    1.5592 H         1 <0>         0.0869
     20 H7         -1.4277   -0.4125    0.3576 H         1 <0>         0.0666
     21 H8         -0.7629   -1.9831    0.8671 H         1 <0>         0.0660
     22 H9         -1.0203   -0.6940    2.0673 H         1 <0>         0.0804
     23 H10         2.1490   -1.0199   -2.8199 H         1 <0>         0.4069
     24 H11         4.6938   -1.9110   -3.1740 H         1 <0>         0.1557
     25 H12         6.7738   -0.9682   -3.8920 H         1 <0>         0.4115
     26 H13         6.2770    0.5901   -3.5081 H         1 <0>         0.4045
     27 H14         5.1870    1.7550   -2.8389 H         1 <0>         0.0802
@<TRIPOS>BOND
     1    1    2 1
     2    1   14 1
     3    1   15 1
     4    1   16 1
     5    2    3 1
     6    2    4 1
     7    2    5 1
     8    3   17 1
     9    3   18 1
    10    3   19 1
    11    4   20 1
    12    4   21 1
    13    4   22 1
    14    5    6 1
    15    6    7 2
    16    6    8 am
    17    8    9 1
    18    8   23 1
    19    9   10 2
    20    9   12 1
    21   10   11 1
    22   10   24 1
    23   11   25 1
    24   11   26 1
    25   12   13 2
    26   12   27 1
@<TRIPOS>MOLECULE
ZINC49468006
   31    30     0     0     0
SMALL
USER_CHARGES

@<TRIPOS>ATOM
      1 C1         -0.0187    1.5258    0.0104 C.3       1 <0>        -0.1460
      2 C2          0.0021   -0.0041    0.0020 C.3       1 <0>        -0.0871
      3 H1         -1.0205   -0.3814    0.0098 H         1 <0>         0.1120
      4 C3          0.7309   -0.5033    1.2229 C.2       1 <0>         0.5367
      5 O1          1.9109   -0.7754    1.1557 O.2       1 <0>        -0.5038
      6 N1          0.0715   -0.6474    2.3895 N.am      1 <0>        -0.5263
      7 N2          0.7491   -1.1115    3.5245 N.am      1 <0>        -0.5306
      8 C4          0.0897   -1.2556    4.6910 C.2       1 <0>         0.7139
      9 O2          0.6778   -1.6583    5.6761 O.2       1 <0>        -0.5654
     10 N3         -1.2216   -0.9532    4.7657 N.am      1 <0>        -0.7396
     11 C5         -1.9384   -1.1098    6.0337 C.3       1 <0>         0.1518
     12 C6         -1.7501    0.1477    6.8847 C.3       1 <0>        -0.1667
     13 C7         -3.4282   -1.3187    5.7550 C.3       1 <0>        -0.1625
     14 S1          0.8511   -0.5891   -1.4904 S.3       1 <0>        -0.1786
     15 C8         -0.2200   -0.0410   -2.8480 C.3       1 <0>        -0.1386
     16 H2          1.0039    1.9031    0.0027 H         1 <0>         0.0803
     17 H3         -0.5459    1.8868   -0.8726 H         1 <0>         0.0755
     18 H4         -0.5289    1.8773    0.9072 H         1 <0>         0.0709
     19 H5         -0.8722   -0.4298    2.4432 H         1 <0>         0.4194
     20 H6          1.6929   -1.3291    3.4707 H         1 <0>         0.4447
     21 H7         -1.6907   -0.6319    3.9799 H         1 <0>         0.3893
     22 H8         -1.5444   -1.9734    6.5695 H         1 <0>         0.0929
     23 H9         -2.2834    0.0312    7.8282 H         1 <0>         0.0693
     24 H10        -0.6888    0.2965    7.0833 H         1 <0>         0.0625
     25 H11        -2.1441    1.0113    6.3489 H         1 <0>         0.0564
     26 H12        -3.5623   -2.2146    5.1488 H         1 <0>         0.0630
     27 H13        -3.9615   -1.4352    6.6985 H         1 <0>         0.0779
     28 H14        -3.8222   -0.4551    5.2192 H         1 <0>         0.0612
     29 H15        -1.2074   -0.4887   -2.7351 H         1 <0>         0.0784
     30 H16        -0.3087    1.0451   -2.8251 H         1 <0>         0.0804
     31 H17         0.2125   -0.3502   -3.7996 H         1 <0>         0.1088
@<TRIPOS>BOND
     1    1    2 1
     2    1   16 1
     3    1   17 1
     4    1   18 1
     5    2    3 1
     6    2    4 1
     7    2   14 1
     8    4    5 2
     9    4    6 am
    10    6    7 1
    11    6   19 1
    12    7    8 am
    13    7   20 1
    14    8    9 2
    15    8   10 am
    16   10   11 1
    17   10   21 1
    18   11   12 1
    19   11   13 1
    20   11   22 1
    21   12   23 1
    22   12   24 1
    23   12   25 1
    24   13   26 1
    25   13   27 1
    26   13   28 1
    27   14   15 1
    28   15   29 1
    29   15   30 1
    30   15   31 1
@<TRIPOS>MOLECULE
ZINC61918903
   30    30     0     0     0
SMALL
USER_CHARGES

@<TRIPOS>ATOM
      1 C1         -0.2162    1.5027    0.1536 C.3       1 <0>        -0.1473
      2 C2          0.0021   -0.0041    0.0020 C.3       1 <0>         0.1462
      3 H1         -0.9621   -0.5124   -0.0008 H         1 <0>         0.0758
      4 C3          0.7191   -0.2798   -1.2945 C.2       1 <0>         0.3808
      5 N1          0.0480   -0.3918   -2.3926 N.2       1 <0>        -0.4325
      6 O1          0.7217   -0.6509   -3.6108 O.3       1 <0>        -0.4272
      7 N2          2.0899   -0.4124   -1.3086 N.pl3     1 <0>        -0.8607
      8 N3          0.8122   -0.4968    1.1240 N.3       1 <0>        -0.5503
      9 C4          1.0360   -1.9521    1.0160 C.3       1 <0>         0.0568
     10 C5          2.3214   -2.2996    1.7259 C.3       1 <0>        -0.1531
     11 C6          2.0780   -2.6562    3.2002 C.3       1 <0>         0.0611
     12 O2          1.1174   -1.7850    3.8281 O.3       1 <0>        -0.3882
     13 C7          1.2161   -0.4144    3.5289 C.3       1 <0>         0.0681
     14 C8          0.2730   -0.0843    2.3534 C.3       1 <0>         0.0318
     15 H2          0.7459    1.9978    0.2848 H         1 <0>         0.0703
     16 H3         -0.7057    1.8906   -0.7397 H         1 <0>         0.0726
     17 H4         -0.8444    1.6930    1.0238 H         1 <0>         0.0719
     18 H5          0.1363   -0.7180   -4.3775 H         1 <0>         0.3993
     19 H6          2.5938   -0.3282   -0.4840 H         1 <0>         0.4035
     20 H7          2.5514   -0.5898   -2.1431 H         1 <0>         0.4029
     21 H8          0.2064   -2.4849    1.4806 H         1 <0>         0.0518
     22 H9          1.1112   -2.2333   -0.0344 H         1 <0>         0.0803
     23 H10         2.7847   -3.1503    1.2262 H         1 <0>         0.0809
     24 H11         2.9981   -1.4467    1.6736 H         1 <0>         0.0785
     25 H12         1.7147   -3.6822    3.2593 H         1 <0>         0.0874
     26 H13         3.0223   -2.5871    3.7401 H         1 <0>         0.0537
     27 H14         0.9283    0.1708    4.4023 H         1 <0>         0.0932
     28 H15         2.2425   -0.1752    3.2509 H         1 <0>         0.0620
     29 H16         0.1043    0.9922    2.3244 H         1 <0>         0.0923
     30 H17        -0.6807   -0.5882    2.5104 H         1 <0>         0.0378
@<TRIPOS>BOND
     1    1    2 1
     2    1   15 1
     3    1   16 1
     4    1   17 1
     5    2    3 1
     6    2    4 1
     7    2    8 1
     8    4    5 2
     9    4    7 1
    10    5    6 1
    11    6   18 1
    12    7   19 1
    13    7   20 1
    14    8   14 1
    15    8    9 1
    16    9   10 1
    17    9   21 1
    18    9   22 1
    19   10   11 1
    20   10   23 1
    21   10   24 1
    22   11   12 1
    23   11   25 1
    24   11   26 1
    25   12   13 1
    26   13   14 1
    27   13   27 1
    28   13   28 1
    29   14   29 1
    30   14   30 1
@<TRIPOS>MOLECULE
ZINC65336503
   29    30     0     0     0
SMALL
USER_CHARGES

@<TRIPOS>ATOM
      1 C1         -0.0088    1.5406    0.0106 C.3       1 <0>        -0.1240
      2 C2          1.4255    2.0743    0.0200 C.3       1 <0>        -0.1394
      3 C3          2.1425    1.5780    1.2796 C.3       1 <0>         0.1198
      4 N1          2.0433    0.1131    1.3339 N.pl3     1 <0>        -0.5712
      5 C4          0.7155   -0.5091    1.2409 C.3       1 <0>         0.1027
      6 C5          0.0146    0.0107   -0.0182 C.3       1 <0>        -0.1373
      7 C6          3.1662   -0.6571    1.4681 C.2       1 <0>         0.6679
      8 N2          4.3344   -0.0418    1.4246 N.2       1 <0>        -0.6165
      9 C7          5.4851   -0.7038    1.5457 C.2       1 <0>         0.5464
     10 O1          6.5549   -0.1278    1.5047 O.2       1 <0>        -0.4247
     11 C8          5.4027   -2.2072    1.7374 C.3       1 <0>        -0.0201
     12 H1          5.9003   -2.4583    2.6741 H         1 <0>         0.1376
     13 C9          4.0052   -2.7976    1.7706 C.cat     1 <0>         0.5862
     14 N3          2.9944   -1.9679    1.6375 N.pl3     1 <0>        -0.6159
     15 N4          3.8076   -4.1229    1.9357 N.pl3     1 <0>        -0.7316
     16 S1          6.3154   -3.0010    0.3855 S.3       1 <0>        -0.9099
     17 H2         -0.5281    1.8791    0.9071 H         1 <0>         0.0697
     18 H3         -0.5288    1.9125   -0.8723 H         1 <0>         0.0741
     19 H4          1.9529    1.7158   -0.8639 H         1 <0>         0.0735
     20 H5          1.4082    3.1642    0.0169 H         1 <0>         0.0874
     21 H6          3.1914    1.8721    1.2428 H         1 <0>         0.1192
     22 H7          1.6706    2.0092    2.1625 H         1 <0>         0.0819
     23 H8          0.8230   -1.5920    1.1787 H         1 <0>         0.0707
     24 H9          0.1273   -0.2481    2.1207 H         1 <0>         0.0950
     25 H10        -1.0070   -0.3683   -0.0485 H         1 <0>         0.0869
     26 H11         0.5553   -0.3284   -0.9018 H         1 <0>         0.0738
     27 H12         4.5672   -4.7177    2.0361 H         1 <0>         0.4567
     28 H13         2.9060   -4.4802    1.9541 H         1 <0>         0.4229
     29 H14         2.0919   -2.3226    1.6595 H         1 <0>         0.4181
@<TRIPOS>BOND
     1    1    6 1
     2    1    2 1
     3    1   17 1
     4    1   18 1
     5    2    3 1
     6    2   19 1
     7    2   20 1
     8    3    4 1
     9    3   21 1
    10    3   22 1
    11    4    5 1
    12    4    7 1
    13    5    6 1
    14    5   23 1
    15    5   24 1
    16    6   25 1
    17    6   26 1
    18    7   14 1
    19    7    8 2
    20    8    9 1
    21    9   10 2
    22    9   11 1
    23   11   12 1
    24   11   13 1
    25   11   16 1
    26   13   14 2
    27   13   15 1
    28   14   29 1
    29   15   27 1
    30   15   28 1
@<TRIPOS>MOLECULE
ZINC36974167
   37    38     0     0     0
SMALL
USER_CHARGES

@<TRIPOS>ATOM
      1 C1         -0.0121    1.3606    0.0510 C.ar      1 <0>        -0.1079
      2 C2          1.1675    2.0757    0.0284 C.ar      1 <0>        -0.0695
      3 C3          2.3889    1.4005    0.0030 C.ar      1 <0>        -0.0993
      4 C4          2.4079    0.0048    0.0006 C.ar      1 <0>        -0.0976
      5 C5          1.2210   -0.6981    0.0233 C.ar      1 <0>        -0.1071
      6 C6          0.0138   -0.0227    0.0485 C.ar      1 <0>        -0.1019
      7 C7         -1.2787   -0.7972    0.0732 C.3       1 <0>         0.1805
      8 N1         -1.7252   -1.0462   -1.2997 N.am      1 <0>        -0.7398
      9 C8         -2.8666   -1.7268   -1.5241 C.2       1 <0>         0.7045
     10 O1         -3.5258   -2.1342   -0.5872 O.2       1 <0>        -0.5963
     11 N2         -3.2774   -1.9558   -2.7872 N.am      1 <0>        -0.8690
     12 C9          3.6569    2.1603   -0.0218 C.2       1 <0>         0.5672
     13 O2          3.6947    3.2940    0.4151 O.2       1 <0>        -0.5306
     14 N3          4.7709    1.5960   -0.5288 N.am      1 <0>        -0.5819
     15 C10         4.8403    0.2868   -1.2031 C.3       1 <0>         0.0979
     16 C11         6.0949    0.3726   -2.1076 C.3       1 <0>        -0.1334
     17 C12         7.0632    1.1981   -1.2197 C.3       1 <0>        -0.1102
     18 C13         6.1169    2.1868   -0.5067 C.3       1 <0>         0.0657
     19 H1          6.1113    3.1418   -1.0321 H         1 <0>         0.0696
     20 C14         6.5663    2.3851    0.9181 C.2       1 <0>         0.4976
     21 O3          6.1685    1.6347    1.7928 O.co2     1 <0>        -0.6863
     22 O4          7.3275    3.2961    1.1960 O.co2     1 <0>        -0.6948
     23 H2         -0.9577    1.8818    0.0752 H         1 <0>         0.1281
     24 H3          1.1460    3.1554    0.0301 H         1 <0>         0.1350
     25 H4          3.3496   -0.5236   -0.0194 H         1 <0>         0.1426
     26 H5          1.2343   -1.7780    0.0214 H         1 <0>         0.1280
     27 H6         -1.1228   -1.7481    0.5827 H         1 <0>         0.0770
     28 H7         -2.0374   -0.2212    0.6032 H         1 <0>         0.0766
     29 H8         -1.1994   -0.7211   -2.0472 H         1 <0>         0.3988
     30 H9         -2.7515   -1.6308   -3.5347 H         1 <0>         0.3969
     31 H10        -4.0989   -2.4457   -2.9487 H         1 <0>         0.4141
     32 H11         4.9549   -0.5118   -0.4702 H         1 <0>         0.0708
     33 H12         3.9477    0.1233   -1.8070 H         1 <0>         0.0724
     34 H13         6.4996   -0.6191   -2.3096 H         1 <0>         0.0796
     35 H14         5.8720    0.8984   -3.0360 H         1 <0>         0.0717
     36 H15         7.5688    0.5550   -0.4993 H         1 <0>         0.0752
     37 H16         7.7866    1.7348   -1.8335 H         1 <0>         0.0757
@<TRIPOS>BOND
     1    1    6 ar
     2    1    2 ar
     3    1   23 1
     4    2    3 ar
     5    2   24 1
     6    3    4 ar
     7    3   12 1
     8    4    5 ar
     9    4   25 1
    10    5    6 ar
    11    5   26 1
    12    6    7 1
    13    7    8 1
    14    7   27 1
    15    7   28 1
    16    8    9 am
    17    8   29 1
    18    9   10 2
    19    9   11 am
    20   11   30 1
    21   11   31 1
    22   12   13 2
    23   12   14 am
    24   14   18 1
    25   14   15 1
    26   15   16 1
    27   15   32 1
    28   15   33 1
    29   16   17 1
    30   16   34 1
    31   16   35 1
    32   17   18 1
    33   17   36 1
    34   17   37 1
    35   18   19 1
    36   18   20 1
    37   20   21 2
    38   20   22 1
@<TRIPOS>MOLECULE
ZINC40483988
   35    35     0     0     0
SMALL
USER_CHARGES

@<TRIPOS>ATOM
      1 C1         -0.0187    1.5272    0.0104 C.3       1 <0>        -0.1337
      2 C2          1.4216    2.0475   -0.0005 C.3       1 <0>        -0.1474
      3 C3          2.1755    1.4711    1.1999 C.3       1 <0>        -0.0035
      4 N1          2.1825    0.0055    1.1201 N.4       1 <0>        -0.4879
      5 C4          0.8086   -0.5044    1.2023 C.3       1 <0>         0.0091
      6 H1          0.3450   -0.1514    2.1235 H         1 <0>         0.1575
      7 C5          0.0021   -0.0041    0.0020 C.3       1 <0>        -0.1378
      8 C6          0.8315   -2.0112    1.1976 C.2       1 <0>         0.4871
      9 O1          1.8890   -2.6014    1.1321 O.2       1 <0>        -0.5501
     10 N2         -0.3231   -2.7030    1.2662 N.am      1 <0>        -0.6453
     11 C7         -0.3008   -4.1678    1.2616 C.3       1 <0>         0.0690
     12 H2          0.5806   -4.5194    1.7979 H         1 <0>         0.0855
     13 C8         -1.5609   -4.6992    1.9477 C.3       1 <0>        -0.0873
     14 C9         -1.5451   -4.2987    3.4242 C.3       1 <0>        -0.1770
     15 C10        -2.7863   -4.8222    4.1000 C.2       1 <0>         0.4878
     16 O2         -3.6074   -5.4566    3.4599 O.co2     1 <0>        -0.6918
     17 O3         -2.9693   -4.6111    5.2868 O.co2     1 <0>        -0.7143
     18 C11        -0.2553   -4.6651   -0.1603 C.2       1 <0>         0.4972
     19 O4          0.2958   -5.7213   -0.4193 O.co2     1 <0>        -0.6852
     20 O5         -0.7696   -4.0111   -1.0515 O.co2     1 <0>        -0.6971
     21 H3         -0.5268    1.8799    0.9079 H         1 <0>         0.0827
     22 H4         -0.5438    1.8894   -0.8733 H         1 <0>         0.0954
     23 H5          1.9136    1.7374   -0.9224 H         1 <0>         0.0881
     24 H6          1.4159    3.1357    0.0615 H         1 <0>         0.1083
     25 H7          3.2012    1.8398    1.1952 H         1 <0>         0.1315
     26 H8          1.6828    1.7820    2.1211 H         1 <0>         0.1288
     27 H9          2.5945   -0.2807    0.2446 H         1 <0>         0.4313
     28 H10        -1.0182   -0.3823    0.0659 H         1 <0>         0.1200
     29 H11         0.4646   -0.3567   -0.9198 H         1 <0>         0.0978
     30 H12        -1.1689   -2.2310    1.3185 H         1 <0>         0.4007
     31 H13        -2.4426   -4.2764    1.4660 H         1 <0>         0.0653
     32 H14        -1.5882   -5.7858    1.8662 H         1 <0>         0.0815
     33 H15        -0.6634   -4.7215    3.9059 H         1 <0>         0.0539
     34 H16        -1.5178   -3.2121    3.5057 H         1 <0>         0.0459
     35 H17         2.7255   -0.3693    1.8834 H         1 <0>         0.4337
@<TRIPOS>BOND
     1    1    7 1
     2    1    2 1
     3    1   21 1
     4    1   22 1
     5    2    3 1
     6    2   23 1
     7    2   24 1
     8    3    4 1
     9    3   25 1
    10    3   26 1
    11    4    5 1
    12    4   27 1
    13    4   35 1
    14    5    6 1
    15    5    7 1
    16    5    8 1
    17    7   28 1
    18    7   29 1
    19    8    9 2
    20    8   10 am
    21   10   11 1
    22   10   30 1
    23   11   12 1
    24   11   13 1
    25   11   18 1
    26   13   14 1
    27   13   31 1
    28   13   32 1
    29   14   15 1
    30   14   33 1
    31   14   34 1
    32   15   16 2
    33   15   17 1
    34   18   19 2
    35   18   20 1
@<TRIPOS>MOLECULE
ZINC40578816
   29    29     0     0     0
SMALL
USER_CHARGES

@<TRIPOS>ATOM
      1 C1          1.9662    0.6955   -0.2232 C.3       1 <0>        -0.0878
      2 C2          0.8711   -0.3337   -0.1110 C.2       1 <0>         0.0813
      3 C3          0.0212   -0.7114   -1.0995 C.2       1 <0>         0.0221
      4 C4         -0.8381   -1.6890   -0.5773 C.2       1 <0>         0.0981
      5 N1         -0.5184   -1.8917    0.6751 N.2       1 <0>        -0.2943
      6 N2          0.5591   -1.0563    0.9962 N.pl3     1 <0>        -0.4783
      7 H1          1.0023   -1.0016    1.8573 H         1 <0>         0.4396
      8 C5         -1.9417   -2.3865   -1.3301 C.3       1 <0>        -0.0698
      9 N3          0.0048   -0.2103   -2.4157 N.am      1 <0>        -0.6751
     10 C6          0.4238   -0.9840   -3.4366 C.2       1 <0>         0.7003
     11 O1          0.7212   -2.1460   -3.2366 O.2       1 <0>        -0.5898
     12 N4          0.5131   -0.4698   -4.6792 N.am      1 <0>        -0.7124
     13 C7          0.9686   -1.3108   -5.7889 C.3       1 <0>         0.0900
     14 H2          0.6112   -2.3301   -5.6428 H         1 <0>         0.0808
     15 C8          2.4978   -1.3083   -5.8364 C.3       1 <0>        -0.1404
     16 C9          0.4249   -0.7690   -7.0858 C.2       1 <0>         0.4961
     17 O2          0.2159    0.4260   -7.2073 O.co2     1 <0>        -0.6926
     18 O3          0.1939   -1.5257   -8.0135 O.co2     1 <0>        -0.6881
     19 H3          2.8889    0.2109   -0.5424 H         1 <0>         0.0814
     20 H4          1.6808    1.4513   -0.9550 H         1 <0>         0.0856
     21 H5          2.1209    1.1687    0.7464 H         1 <0>         0.0699
     22 H6         -1.5766   -3.3417   -1.7075 H         1 <0>         0.0816
     23 H7         -2.7852   -2.5585   -0.6615 H         1 <0>         0.0696
     24 H8         -2.2614   -1.7639   -2.1657 H         1 <0>         0.0749
     25 H9         -0.3081    0.6917   -2.5873 H         1 <0>         0.3992
     26 H10         0.2759    0.4571   -4.8387 H         1 <0>         0.4006
     27 H11         2.8367   -1.9340   -6.6621 H         1 <0>         0.0604
     28 H12         2.8552   -0.2890   -5.9826 H         1 <0>         0.0503
     29 H13         2.8911   -1.7002   -4.8984 H         1 <0>         0.0471
@<TRIPOS>BOND
     1    1    2 1
     2    1   19 1
     3    1   20 1
     4    1   21 1
     5    2    6 1
     6    2    3 2
     7    3    4 1
     8    3    9 1
     9    4    5 2
    10    4    8 1
    11    5    6 1
    12    6    7 1
    13    8   22 1
    14    8   23 1
    15    8   24 1
    16    9   10 am
    17    9   25 1
    18   10   11 2
    19   10   12 am
    20   12   13 1
    21   12   26 1
    22   13   14 1
    23   13   15 1
    24   13   16 1
    25   15   27 1
    26   15   28 1
    27   15   29 1
    28   16   17 2
    29   16   18 1
@<TRIPOS>MOLECULE
ZINC49103488
   42    42     0     0     0
SMALL
USER_CHARGES

@<TRIPOS>ATOM
      1 C1         -0.0187    1.5258    0.0104 C.3       1 <0>        -0.1569
      2 C2          0.0021   -0.0041    0.0020 C.3       1 <0>         0.1471
      3 H1          0.5123   -0.3556   -0.8948 H         1 <0>         0.1140
      4 C3          0.7309   -0.5033    1.2229 C.2       1 <0>         0.5118
      5 O1          0.1587   -1.2128    2.0229 O.2       1 <0>        -0.5314
      6 N1          2.0187   -0.1613    1.4257 N.am      1 <0>        -0.7336
      7 C4          2.7273   -0.6466    2.6126 C.3       1 <0>         0.0881
      8 N2         -1.3723   -0.5112    0.0124 N.am      1 <0>        -0.7374
      9 C5         -2.0508   -0.6427   -1.1446 C.2       1 <0>         0.7086
     10 O2         -1.5223   -0.3406   -2.1971 O.2       1 <0>        -0.5947
     11 N3         -3.3153   -1.1092   -1.1351 N.am      1 <0>        -0.7076
     12 C6         -4.0528   -1.2522   -2.3928 C.3       1 <0>         0.0988
     13 H2         -3.7712   -0.4481   -3.0726 H         1 <0>         0.0796
     14 C7         -5.5555   -1.1814   -2.1137 C.3       1 <0>        -0.0761
     15 C8         -5.8926    0.1676   -1.4753 C.3       1 <0>        -0.1111
     16 C9         -7.3952    0.2384   -1.1963 C.3       1 <0>        -0.1169
     17 C10        -8.1655    0.0891   -2.5098 C.3       1 <0>        -0.1176
     18 C11        -7.8284   -1.2599   -3.1481 C.3       1 <0>        -0.1172
     19 C12        -6.3257   -1.3307   -3.4272 C.3       1 <0>        -0.1084
     20 C13        -3.7207   -2.5809   -3.0215 C.2       1 <0>         0.4934
     21 O3         -3.4280   -3.5323   -2.3175 O.co2     1 <0>        -0.6935
     22 O4         -3.7449   -2.7045   -4.2342 O.co2     1 <0>        -0.6941
     23 H3          1.0039    1.9031    0.0027 H         1 <0>         0.0652
     24 H4         -0.5459    1.8868   -0.8726 H         1 <0>         0.0774
     25 H5         -0.5289    1.8773    0.9072 H         1 <0>         0.0597
     26 H6          2.4764    0.4061    0.7859 H         1 <0>         0.4039
     27 H7          2.2171   -0.2951    3.5094 H         1 <0>         0.0591
     28 H8          2.7421   -1.7365    2.6066 H         1 <0>         0.0601
     29 H9          3.7499   -0.2693    2.6049 H         1 <0>         0.0752
     30 H10        -1.7940   -0.7522    0.8520 H         1 <0>         0.4009
     31 H11        -3.7369   -1.3503   -0.2954 H         1 <0>         0.3883
     32 H12        -5.8371   -1.9855   -1.4339 H         1 <0>         0.0688
     33 H13        -5.3438    0.2740   -0.5396 H         1 <0>         0.0570
     34 H14        -5.6110    0.9717   -2.1551 H         1 <0>         0.0588
     35 H15        -7.6769   -0.5657   -0.5165 H         1 <0>         0.0587
     36 H16        -7.6354    1.1995   -0.7415 H         1 <0>         0.0544
     37 H17        -9.2360    0.1396   -2.3110 H         1 <0>         0.0536
     38 H18        -7.8839    0.8932   -3.1896 H         1 <0>         0.0589
     39 H19        -8.1100   -2.0641   -2.4683 H         1 <0>         0.0579
     40 H20        -8.3771   -1.3663   -4.0839 H         1 <0>         0.0577
     41 H21        -6.0441   -0.5266   -4.1070 H         1 <0>         0.0598
     42 H22        -6.0855   -2.2918   -3.8820 H         1 <0>         0.0798
@<TRIPOS>BOND
     1    1    2 1
     2    1   23 1
     3    1   24 1
     4    1   25 1
     5    2    3 1
     6    2    4 1
     7    2    8 1
     8    4    5 2
     9    4    6 am
    10    6    7 1
    11    6   26 1
    12    7   27 1
    13    7   28 1
    14    7   29 1
    15    8    9 am
    16    8   30 1
    17    9   10 2
    18    9   11 am
    19   11   12 1
    20   11   31 1
    21   12   13 1
    22   12   14 1
    23   12   20 1
    24   14   19 1
    25   14   15 1
    26   14   32 1
    27   15   16 1
    28   15   33 1
    29   15   34 1
    30   16   17 1
    31   16   35 1
    32   16   36 1
    33   17   18 1
    34   17   37 1
    35   17   38 1
    36   18   19 1
    37   18   39 1
    38   18   40 1
    39   19   41 1
    40   19   42 1
    41   20   21 2
    42   20   22 1
@<TRIPOS>MOLECULE
ZINC61147883
   34    34     0     0     0
SMALL
USER_CHARGES

@<TRIPOS>ATOM
      1 C1         -0.0189    1.5409    0.0105 C.3       1 <0>        -0.1471
      2 C2          1.4743    1.9366   -0.0016 C.3       1 <0>         0.0431
      3 O1          2.1632    0.7948    0.5532 O.3       1 <0>        -0.3757
      4 C3          1.5055   -0.3590   -0.0142 C.3       1 <0>         0.0471
      5 C4          0.0021   -0.0041    0.0020 C.3       1 <0>        -0.1362
      6 H1         -0.4735   -0.3974    0.9004 H         1 <0>         0.0922
      7 C5         -0.6895   -0.5427   -1.2520 C.3       1 <0>         0.1490
      8 N1         -0.7627   -2.0041   -1.1797 N.am      1 <0>        -0.7485
      9 C6         -1.3354   -2.7005   -2.1814 C.2       1 <0>         0.7070
     10 O2         -1.7912   -2.1159   -3.1452 O.2       1 <0>        -0.5925
     11 N2         -1.4027   -4.0449   -2.1149 N.am      1 <0>        -0.7306
     12 C7         -2.0252   -4.8019   -3.2039 C.3       1 <0>         0.1199
     13 C8         -1.9721   -6.2742   -2.8866 C.2       1 <0>         0.4973
     14 O3         -1.4643   -6.6538   -1.8527 O.2       1 <0>        -0.5611
     15 N3         -2.4889   -7.1691   -3.7517 N.am      1 <0>        -0.6905
     16 C9         -2.4373   -8.6003   -3.4433 C.3       1 <0>         0.0503
     17 C10        -3.0776   -9.3790   -4.5634 C.2       1 <0>         0.4898
     18 O4         -3.5347   -8.7928   -5.5298 O.co2     1 <0>        -0.6903
     19 O5         -3.1385  -10.5952   -4.5033 O.co2     1 <0>        -0.6870
     20 H2         -0.5048    1.9113    0.9131 H         1 <0>         0.0804
     21 H3         -0.5219    1.9209   -0.8786 H         1 <0>         0.0837
     22 H4          1.8092    2.1228   -1.0220 H         1 <0>         0.0615
     23 H5          1.6385    2.8173    0.6192 H         1 <0>         0.0922
     24 H6          1.8451   -0.5248   -1.0366 H         1 <0>         0.0652
     25 H7          1.6936   -1.2417    0.5969 H         1 <0>         0.0930
     26 H8         -1.6968   -0.1312   -1.3165 H         1 <0>         0.0710
     27 H9         -0.1205   -0.2506   -2.1346 H         1 <0>         0.0695
     28 H10        -0.3991   -2.4705   -0.4108 H         1 <0>         0.3975
     29 H11        -1.0391   -4.5113   -1.3461 H         1 <0>         0.4075
     30 H12        -3.0642   -4.4914   -3.3147 H         1 <0>         0.0973
     31 H13        -1.4878   -4.6108   -4.1327 H         1 <0>         0.0974
     32 H14        -2.8951   -6.8655   -4.5787 H         1 <0>         0.4116
     33 H15        -1.3983   -8.9108   -3.3325 H         1 <0>         0.0679
     34 H16        -2.9747   -8.7914   -2.5144 H         1 <0>         0.0679
@<TRIPOS>BOND
     1    1    5 1
     2    1    2 1
     3    1   20 1
     4    1   21 1
     5    2    3 1
     6    2   22 1
     7    2   23 1
     8    3    4 1
     9    4    5 1
    10    4   24 1
    11    4   25 1
    12    5    6 1
    13    5    7 1
    14    7    8 1
    15    7   26 1
    16    7   27 1
    17    8    9 am
    18    8   28 1
    19    9   10 2
    20    9   11 am
    21   11   12 1
    22   11   29 1
    23   12   13 1
    24   12   30 1
    25   12   31 1
    26   13   14 2
    27   13   15 am
    28   15   16 1
    29   15   32 1
    30   16   17 1
    31   16   33 1
    32   16   34 1
    33   17   18 2
    34   17   19 1
@<TRIPOS>MOLECULE
ZINC17122400
   19    19     0     0     0
SMALL
USER_CHARGES
[[(5R,6R)-5-fluoro-6-(hydroxyamino)-2-oxo-5,6-dihydro-1H-pyrimidin-4-yl]amino] hypofluorite
@<TRIPOS>ATOM
      1 C1          2.3513    0.0508   -0.6644 C.3       1 <0>         0.0954
      2 H1          3.3346   -0.3394   -0.4018 H         1 <0>         0.1327
      3 C2          1.2732   -0.7278    0.0940 C.3       1 <0>         0.2843
      4 H2          1.1611   -1.7183   -0.3470 H         1 <0>         0.1250
      5 N1          0.0021   -0.0041    0.0020 N.am      1 <0>        -0.7294
      6 C3         -0.0162    1.3400    0.0094 C.2       1 <0>         0.6901
      7 O1         -1.0857    1.9211    0.0176 O.2       1 <0>        -0.5186
      8 N2          1.1195    2.0548    0.0024 N.2       1 <0>        -0.5685
      9 C4          2.2706    1.5079   -0.2867 C.2       1 <0>         0.4485
     10 N3          3.3963    2.2536   -0.2466 N.pl3     1 <0>        -0.5745
     11 O2          3.3263    3.6228    0.1076 O.3       1 <0>         0.0795
     12 F1          4.3971    4.1862    0.1089 F         1 <0>         0.0240
     13 N4          1.6620   -0.8597    1.5044 N.3       1 <0>        -0.5181
     14 O3          1.1219   -2.0894    2.0844 O.3       1 <0>        -0.4059
     15 F2          2.1456   -0.0870   -2.0413 F         1 <0>        -0.1597
     16 H3         -0.8304   -0.4975   -0.0642 H         1 <0>         0.4184
     17 H4          4.2525    1.8511   -0.4605 H         1 <0>         0.4340
     18 H5          2.6649   -0.8211    1.6082 H         1 <0>         0.3476
     19 H6          1.3523   -2.2199    3.0144 H         1 <0>         0.3951
@<TRIPOS>BOND
     1    1    2 1
     2    1    9 1
     3    1    3 1
     4    1   15 1
     5    3    4 1
     6    3    5 1
     7    3   13 1
     8    5    6 am
     9    5   16 1
    10    6    7 2
    11    6    8 1
    12    8    9 2
    13    9   10 1
    14   10   11 1
    15   10   17 1
    16   11   12 1
    17   13   14 1
    18   13   18 1
    19   14   19 1
@<TRIPOS>MOLECULE
ZINC01395545
   24    24     0     0     0
SMALL
USER_CHARGES

@<TRIPOS>ATOM
      1 C1          0.1278    1.5036    0.4153 C.ar      1 <0>        -0.1261
      2 C2          0.3956    0.4233    1.2361 C.ar      1 <0>        -0.0925
      3 C3          1.5602   -0.3001    1.0700 C.ar      1 <0>        -0.1434
      4 C4          2.4631    0.0585    0.0770 C.ar      1 <0>         0.1428
      5 C5          2.1909    1.1443   -0.7458 C.ar      1 <0>        -0.1354
      6 C6          1.0244    1.8634   -0.5741 C.ar      1 <0>        -0.0939
      7 N1          3.6428   -0.6710   -0.0936 N.pl3     1 <0>        -0.6529
      8 C7          3.6277   -2.0559    0.0292 C.2       1 <0>         0.5431
      9 C8          2.4703   -2.6997    0.1589 C.2       1 <0>        -0.3311
     10 N2          2.4590   -4.1424    0.4938 N.pl3     1 <0>         0.0908
     11 O1          3.4933   -4.7097    0.7583 O.2       1 <0>        -0.2705
     12 O2          1.4154   -4.7527    0.5027 O.3       1 <0>        -0.1848
     13 N3          4.8214   -2.7678    0.0165 N.pl3     1 <0>        -0.5609
     14 N4          6.0092   -2.1073   -0.1214 N.3       1 <0>        -0.6168
     15 H1         -0.7858    2.0649    0.5445 H         1 <0>         0.1291
     16 H2         -0.3065    0.1453    2.0081 H         1 <0>         0.1323
     17 H3          1.7690   -1.1434    1.7115 H         1 <0>         0.1348
     18 H4          2.8909    1.4260   -1.5185 H         1 <0>         0.1299
     19 H5          0.8120    2.7074   -1.2136 H         1 <0>         0.1317
     20 H6          4.4722   -0.2113   -0.2977 H         1 <0>         0.4256
     21 H7          1.5393   -2.1703    0.0200 H         1 <0>         0.1948
     22 H8          4.8111   -3.7336    0.1055 H         1 <0>         0.4356
     23 H9          6.1569   -1.4655    0.6430 H         1 <0>         0.3409
     24 H10         6.7770   -2.7569   -0.2016 H         1 <0>         0.3770
@<TRIPOS>BOND
     1    1    6 ar
     2    1    2 ar
     3    1   15 1
     4    2    3 ar
     5    2   16 1
     6    3    4 ar
     7    3   17 1
     8    4    5 ar
     9    4    7 1
    10    5    6 ar
    11    5   18 1
    12    6   19 1
    13    7    8 1
    14    7   20 1
    15    8    9 2
    16    8   13 1
    17    9   10 1
    18    9   21 1
    19   10   11 2
    20   10   12 1
    21   13   14 1
    22   13   22 1
    23   14   23 1
    24   14   24 1
@<TRIPOS>MOLECULE
ZINC42489501
   30    30     0     0     0
SMALL
USER_CHARGES

@<TRIPOS>ATOM
      1 C1         -0.0179    1.4589    0.0231 C.3       1 <0>         0.0850
      2 N1          0.0015   -0.0059    0.0108 N.am      1 <0>        -0.7356
      3 C2          0.5869   -0.6636   -1.0096 C.2       1 <0>         0.5157
      4 O1          1.0975   -0.0428   -1.9178 O.2       1 <0>        -0.5357
      5 C3          0.6068   -2.1704   -1.0222 C.3       1 <0>        -0.1063
      6 C4          1.3423   -2.6809    0.2190 C.3       1 <0>        -0.1271
      7 C5          1.3306   -4.2128    0.2206 C.3       1 <0>         0.1322
      8 N2          1.8891   -4.6913   -1.0513 N.am      1 <0>        -0.6289
      9 C6          1.3142   -4.1919   -2.3078 C.3       1 <0>         0.1117
     10 C7          1.3262   -2.6603   -2.2810 C.3       1 <0>        -0.1158
     11 C8          2.9099   -5.5713   -1.0652 C.2       1 <0>         0.7149
     12 O2          3.4399   -5.9041   -0.0228 O.2       1 <0>        -0.5708
     13 N3          3.3431   -6.0825   -2.2346 N.am      1 <0>        -0.5954
     14 N4          4.3078   -7.0496   -2.2417 N.3       1 <0>        -0.5902
     15 H1          1.0048    1.8359    0.0190 H         1 <0>         0.0604
     16 H2         -0.5428    1.8227   -0.8602 H         1 <0>         0.0603
     17 H3         -0.5302    1.8080    0.9196 H         1 <0>         0.0766
     18 H4         -0.4069   -0.5024    0.7372 H         1 <0>         0.4024
     19 H5         -0.4160   -2.5472   -1.0186 H         1 <0>         0.1018
     20 H6          2.3725   -2.3251    0.2035 H         1 <0>         0.0762
     21 H7          0.8430   -2.3123    1.1151 H         1 <0>         0.0820
     22 H8          1.9367   -4.5820    1.0478 H         1 <0>         0.1012
     23 H9          0.3064   -4.5702    0.3273 H         1 <0>         0.0711
     24 H10         1.9096   -4.5473   -3.1488 H         1 <0>         0.0785
     25 H11         0.2887   -4.5476   -2.4072 H         1 <0>         0.0746
     26 H12         0.8154   -2.2770   -3.1644 H         1 <0>         0.0861
     27 H13         2.3565   -2.3046   -2.2730 H         1 <0>         0.0778
     28 H14         2.9698   -5.7637   -3.0712 H         1 <0>         0.3934
     29 H15         3.9969   -7.8740   -1.7500 H         1 <0>         0.3442
     30 H16         4.5871   -7.2748   -3.1847 H         1 <0>         0.3597
@<TRIPOS>BOND
     1    1    2 1
     2    1   15 1
     3    1   16 1
     4    1   17 1
     5    2    3 am
     6    2   18 1
     7    3    4 2
     8    3    5 1
     9    5   10 1
    10    5    6 1
    11    5   19 1
    12    6    7 1
    13    6   20 1
    14    6   21 1
    15    7    8 1
    16    7   22 1
    17    7   23 1
    18    8    9 1
    19    8   11 am
    20    9   10 1
    21    9   24 1
    22    9   25 1
    23   10   26 1
    24   10   27 1
    25   11   12 2
    26   11   13 am
    27   13   14 1
    28   13   28 1
    29   14   29 1
    30   14   30 1
@<TRIPOS>MOLECULE
ZINC52048347
   30    31     0     0     0
SMALL
USER_CHARGES

@<TRIPOS>ATOM
      1 C1         -0.0188    1.5345    0.0105 C.3       1 <0>        -0.1256
      2 C2          1.4534    1.9953   -0.0011 C.3       1 <0>        -0.1247
      3 C3          2.2325    0.7924    0.5864 C.3       1 <0>        -0.1288
      4 C4          1.4862   -0.4246   -0.0144 C.3       1 <0>         0.1239
      5 C5          0.0021   -0.0041    0.0020 C.3       1 <0>        -0.1459
      6 N1          1.6915   -1.6134    0.8167 N.pl3     1 <0>        -0.6982
      7 C6          1.5849   -2.8668    0.2620 C.cat     1 <0>         0.7291
      8 N2          1.3011   -2.9974   -1.0035 N.pl3     1 <0>        -0.7804
      9 N3          1.7776   -3.9824    1.0420 N.pl3     1 <0>        -0.6732
     10 C7          1.6639   -5.3180    0.4508 C.3       1 <0>         0.2221
     11 C8          1.9185   -6.3594    1.5099 C.2       1 <0>        -0.0006
     12 N4          3.0903   -6.8858    1.8349 N.2       1 <0>        -0.3587
     13 N5          2.8864   -7.7357    2.7828 N.2       1 <0>        -0.1720
     14 N6          1.6296   -7.7592    3.0618 N.2       1 <0>        -0.1721
     15 N7          1.0144   -6.9208    2.2994 N.2       1 <0>        -0.3586
     16 H1         -0.5162    1.8962    0.9104 H         1 <0>         0.0732
     17 H2         -0.5332    1.9058   -0.8758 H         1 <0>         0.0741
     18 H3          1.7808    2.2008   -1.0203 H         1 <0>         0.0751
     19 H4          1.5822    2.8767    0.6270 H         1 <0>         0.0797
     20 H5          3.2720    0.8083    0.2589 H         1 <0>         0.0846
     21 H6          2.1693    0.7856    1.6746 H         1 <0>         0.0840
     22 H7          1.8189   -0.6099   -1.0357 H         1 <0>         0.1013
     23 H8         -0.4852   -0.3890    0.8978 H         1 <0>         0.0809
     24 H9         -0.5022   -0.3794   -0.8884 H         1 <0>         0.0761
     25 H10         1.9027   -1.5162    1.7585 H         1 <0>         0.4327
     26 H11         1.2259   -3.8817   -1.3949 H         1 <0>         0.4401
     27 H12         1.9887   -3.8852    1.9837 H         1 <0>         0.4342
     28 H13         0.6615   -5.4511    0.0439 H         1 <0>         0.0972
     29 H14         2.3976   -5.4254   -0.3481 H         1 <0>         0.0971
     30 H15         1.1652   -2.2103   -1.5538 H         1 <0>         0.4336
@<TRIPOS>BOND
     1    1    5 1
     2    1    2 1
     3    1   16 1
     4    1   17 1
     5    2    3 1
     6    2   18 1
     7    2   19 1
     8    3    4 1
     9    3   20 1
    10    3   21 1
    11    4    5 1
    12    4    6 1
    13    4   22 1
    14    5   23 1
    15    5   24 1
    16    6    7 1
    17    6   25 1
    18    7    8 2
    19    7    9 1
    20    8   26 1
    21    8   30 1
    22    9   10 1
    23    9   27 1
    24   10   28 1
    25   10   29 1
    26   10   11 1
    27   11   15 2
    28   11   12 1
    29   12   13 1
    30   13   14 2
    31   14   15 1
@<TRIPOS>MOLECULE
ZINC62812235
   21    22     0     0     0
SMALL
USER_CHARGES

@<TRIPOS>ATOM
      1 C1         -0.0164    1.3546    0.0095 C.2       1 <0>        -0.1079
      2 C2          1.2777    1.7711   -0.0006 C.2       1 <0>         0.1613
      3 C3          2.0558    0.5848   -0.0144 C.2       1 <0>        -0.0737
      4 N1          1.2134   -0.4310   -0.0118 N.2       1 <0>        -0.2357
      5 N2          0.0021   -0.0041    0.0020 N.pl3     1 <0>        -0.3579
      6 H1         -0.7858   -0.5699    0.0068 H         1 <0>         0.4523
      7 C4          3.5279    0.5024   -0.0294 C.2       1 <0>         0.6191
      8 O1          4.1940    1.5201   -0.0307 O.2       1 <0>        -0.5289
      9 N3          4.1355   -0.7006   -0.0416 N.am      1 <0>        -0.6339
     10 C5          5.5398   -0.7791   -0.0558 C.2       1 <0>        -0.0097
     11 C6          6.4316    0.3139   -0.0528 C.2       1 <0>         0.0852
     12 N4          7.6467   -0.1558   -0.0689 N.2       1 <0>        -0.3078
     13 O2          7.5706   -1.5696   -0.0828 O.3       1 <0>        -0.0735
     14 C7          6.2718   -1.9150   -0.0689 C.2       1 <0>         0.0071
     15 N5          1.7448    3.0936    0.0016 N.pl3     1 <0>        -0.8537
     16 H2         -0.8934    1.9847    0.0252 H         1 <0>         0.1846
     17 H3          3.6043   -1.5122   -0.0405 H         1 <0>         0.4225
     18 H4          6.1553    1.3579   -0.0394 H         1 <0>         0.2215
     19 H5          5.8820   -2.9222   -0.0706 H         1 <0>         0.2159
     20 H6          1.1142    3.8306    0.0116 H         1 <0>         0.4007
     21 H7          2.6984    3.2712   -0.0069 H         1 <0>         0.4128
@<TRIPOS>BOND
     1    1    5 1
     2    1    2 2
     3    1   16 1
     4    2    3 1
     5    2   15 1
     6    3    4 2
     7    3    7 1
     8    4    5 1
     9    5    6 1
    10    7    8 2
    11    7    9 am
    12    9   10 1
    13    9   17 1
    14   10   14 2
    15   10   11 1
    16   11   12 2
    17   11   18 1
    18   12   13 1
    19   13   14 1
    20   14   19 1
    21   15   20 1
    22   15   21 1
@<TRIPOS>MOLECULE
ZINC24480663
   35    36     0     0     0
SMALL
USER_CHARGES
3-(4-methyl-2,6-dioxo-3H-pyrimidin-5-yl)-N-(1-methylpyrazol-3-yl)propanamide
@<TRIPOS>ATOM
      1 C1         -1.9517   -0.5757    1.3202 C.3       1 <0>        -0.1429
      2 C2         -1.6301    0.7916    1.8664 C.2       1 <0>         0.2107
      3 C3         -0.7181    1.5718    1.2479 C.2       1 <0>        -0.2744
      4 C4         -0.4376    2.8549    1.7764 C.2       1 <0>         0.5564
      5 O1          0.3777    3.5784    1.2334 O.2       1 <0>        -0.5129
      6 N1         -1.0811    3.2682    2.8869 N.am      1 <0>        -0.6752
      7 H1         -0.8706    4.2630    3.3064 H         1 <0>         0.4608
      8 C5         -1.9820    2.4678    3.4864 C.2       1 <0>         0.7005
      9 O2         -2.5549    2.8541    4.4868 O.2       1 <0>        -0.5463
     10 N2         -2.2579    1.2465    2.9939 N.am      1 <0>        -0.6508
     11 H2         -2.9959    0.6120    3.5065 H         1 <0>         0.4647
     12 C6         -0.0127    1.0858    0.0080 C.3       1 <0>        -0.0333
     13 C7         -0.7527    1.5927   -1.2315 C.3       1 <0>        -0.1329
     14 C8         -0.0473    1.1066   -2.4714 C.2       1 <0>         0.5259
     15 O3          0.9492    0.4222   -2.3733 O.2       1 <0>        -0.5153
     16 N3         -0.5238    1.4325   -3.6893 N.am      1 <0>        -0.6514
     17 C9          0.1322    0.9805   -4.8424 C.2       1 <0>         0.3002
     18 C10         1.2924    0.1903   -4.8751 C.2       1 <0>        -0.2696
     19 C11         1.6055   -0.0335   -6.1716 C.2       1 <0>         0.0621
     20 N4          0.6875    0.5969   -6.9340 N.pl3     1 <0>        -0.3718
     21 N5         -0.2273    1.2265   -6.0802 N.2       1 <0>        -0.3277
     22 C12         0.6540    0.6195   -8.3984 C.3       1 <0>         0.1004
     23 H3         -1.3511   -0.7604    0.4174 H         1 <0>         0.1058
     24 H4         -3.0208   -0.6269    1.0662 H         1 <0>         0.0939
     25 H5         -1.7180   -1.3377    2.0784 H         1 <0>         0.0939
     26 H6          1.0193    1.4665    0.0002 H         1 <0>         0.0925
     27 H7          0.0022   -0.0141    0.0019 H         1 <0>         0.0897
     28 H8         -1.7847    1.2120   -1.2236 H         1 <0>         0.0981
     29 H9         -0.7676    2.6926   -1.2254 H         1 <0>         0.1035
     30 H10        -1.4276    2.0532   -3.7783 H         1 <0>         0.4403
     31 H11         1.8366   -0.1759   -4.0172 H         1 <0>         0.1717
     32 H12         2.4441   -0.6104   -6.5327 H         1 <0>         0.1773
     33 H13        -0.2089    1.2122   -8.7363 H         1 <0>         0.0946
     34 H14         0.5643   -0.4087   -8.7790 H         1 <0>         0.0807
     35 H15         1.5814    1.0720   -8.7794 H         1 <0>         0.0807
@<TRIPOS>BOND
     1    1    2 1
     2    1   23 1
     3    1   24 1
     4    1   25 1
     5    2   10 1
     6    2    3 2
     7    3    4 1
     8    3   12 1
     9    4    5 2
    10    4    6 am
    11    6    7 1
    12    6    8 am
    13    8    9 2
    14    8   10 am
    15   10   11 1
    16   12   13 1
    17   12   26 1
    18   12   27 1
    19   13   14 1
    20   13   28 1
    21   13   29 1
    22   14   15 2
    23   14   16 am
    24   16   17 1
    25   16   30 1
    26   17   21 2
    27   17   18 1
    28   18   19 2
    29   18   31 1
    30   19   20 1
    31   19   32 1
    32   20   21 1
    33   20   22 1
    34   22   33 1
    35   22   34 1
    36   22   35 1
@<TRIPOS>MOLECULE
ZINC40507977
   35    36     0     0     0
SMALL
USER_CHARGES

@<TRIPOS>ATOM
      1 C1         -0.0166    1.3745    0.0096 C.2       1 <0>        -0.1059
      2 C2          1.3142    1.8035   -0.0008 C.2       1 <0>        -0.0899
      3 C3          2.1052    0.7039   -0.0143 C.2       1 <0>         0.0730
      4 N1          1.3201   -0.4008   -0.0127 N.pl3     1 <0>        -0.5110
      5 H1          1.6346   -1.3184   -0.0209 H         1 <0>         0.4337
      6 C4          0.0021   -0.0041    0.0020 C.2       1 <0>         0.0271
      7 C5         -1.1691   -0.8871    0.0092 C.2       1 <0>         0.5932
      8 O1         -2.2894   -0.4118    0.0227 O.2       1 <0>        -0.5048
      9 N2         -1.0046   -2.2247    0.0008 N.am      1 <0>        -0.7156
     10 C6         -2.1744   -3.1066    0.0080 C.3       1 <0>         0.1009
     11 C7         -1.7203   -4.5435   -0.0037 C.2       1 <0>         0.5114
     12 O2         -0.5361   -4.8052   -0.0167 O.2       1 <0>        -0.5376
     13 N3         -2.6301   -5.5379    0.0003 N.am      1 <0>        -0.6072
     14 C8         -4.0709   -5.2427    0.0100 C.3       1 <0>         0.1040
     15 C9         -4.7234   -6.0392    1.1449 C.3       1 <0>         0.0406
     16 N4         -4.3815   -7.4605    1.0008 N.3       1 <0>        -0.6899
     17 C10        -2.9343   -7.6763    1.1308 C.3       1 <0>         0.0420
     18 C11        -2.2085   -6.9469   -0.0109 C.3       1 <0>         0.1142
     19 N5          3.5853    0.7082   -0.0288 N.pl3     1 <0>         0.0572
     20 O3          4.1928   -0.3370   -0.0406 O.2       1 <0>        -0.1653
     21 O4          4.1868    1.7570   -0.0289 O.3       1 <0>        -0.1222
     22 H2         -0.8938    2.0043    0.0253 H         1 <0>         0.1788
     23 H3          1.6516    2.8294    0.0012 H         1 <0>         0.1784
     24 H4         -0.1117   -2.6035   -0.0099 H         1 <0>         0.4090
     25 H5         -2.7650   -2.9195    0.9048 H         1 <0>         0.1072
     26 H6         -2.7826   -2.9106   -0.8750 H         1 <0>         0.1089
     27 H7         -4.2252   -4.1764    0.1752 H         1 <0>         0.0918
     28 H8         -4.5111   -5.5358   -0.9432 H         1 <0>         0.0861
     29 H9         -4.3573   -5.6724    2.1039 H         1 <0>         0.0385
     30 H10        -5.8058   -5.9189    1.0982 H         1 <0>         0.0937
     31 H11        -4.8921   -8.0243    1.6638 H         1 <0>         0.3514
     32 H12        -2.5931   -7.2867    2.0899 H         1 <0>         0.0379
     33 H13        -2.7190   -8.7433    1.0738 H         1 <0>         0.0919
     34 H14        -2.4731   -7.4007   -0.9660 H         1 <0>         0.0807
     35 H15        -1.1308   -7.0079    0.1405 H         1 <0>         0.0981
@<TRIPOS>BOND
     1    1    6 2
     2    1    2 1
     3    1   22 1
     4    2    3 2
     5    2   23 1
     6    3    4 1
     7    3   19 1
     8    4    5 1
     9    4    6 1
    10    6    7 1
    11    7    8 2
    12    7    9 am
    13    9   10 1
    14    9   24 1
    15   10   11 1
    16   10   25 1
    17   10   26 1
    18   11   12 2
    19   11   13 am
    20   13   18 1
    21   13   14 1
    22   14   15 1
    23   14   27 1
    24   14   28 1
    25   15   16 1
    26   15   29 1
    27   15   30 1
    28   16   17 1
    29   16   31 1
    30   17   18 1
    31   17   32 1
    32   17   33 1
    33   18   34 1
    34   18   35 1
    35   19   20 2
    36   19   21 1
@<TRIPOS>MOLECULE
ZINC44934840
   39    40     0     0     0
SMALL
USER_CHARGES

@<TRIPOS>ATOM
      1 C1         -0.0187    1.5258    0.0104 C.3       1 <0>        -0.1627
      2 C2          0.0021   -0.0041    0.0020 C.3       1 <0>         0.2739
      3 H1         -1.0205   -0.3814    0.0098 H         1 <0>         0.0785
      4 C3          0.7074   -0.4901   -1.2379 C.2       1 <0>         0.0315
      5 N1          0.1410   -1.0148   -2.3147 N.2       1 <0>        -0.3868
      6 N2          1.0812   -1.3010   -3.1494 N.2       1 <0>        -0.1878
      7 N3          2.2144   -0.9739   -2.6329 N.2       1 <0>        -0.1848
      8 N4          2.0130   -0.4696   -1.4634 N.2       1 <0>        -0.3708
      9 N5          0.7106   -0.4894    1.1889 N.pl3     1 <0>        -1.0957
     10 S1         -0.1388   -0.9023    2.5492 S.o2      1 <0>         2.6192
     11 O1          0.8513   -1.2973    3.4889 O.2       1 <0>        -0.9485
     12 O2         -0.9768    0.2160    2.8067 O.2       1 <0>        -0.9445
     13 C4         -1.1397   -2.3330    2.0574 C.3       1 <0>        -0.6751
     14 C5         -1.9750   -2.8048    3.2493 C.3       1 <0>        -0.1343
     15 C6         -2.8192   -4.0116    2.8345 C.3       1 <0>         0.0370
     16 H2         -2.1698   -4.7853    2.4251 H         1 <0>         0.1441
     17 C7         -3.5580   -4.5607    4.0568 C.3       1 <0>        -0.1429
     18 C8         -4.4012   -5.7682    3.6369 C.3       1 <0>        -0.1384
     19 C9         -5.3604   -5.3452    2.5207 C.3       1 <0>        -0.1471
     20 C10        -4.5549   -4.7669    1.3552 C.3       1 <0>        -0.0077
     21 N6         -3.7919   -3.6003    1.8151 N.4       1 <0>        -0.5074
     22 H3          1.0039    1.9031    0.0027 H         1 <0>         0.0684
     23 H4         -0.5459    1.8868   -0.8726 H         1 <0>         0.0670
     24 H5         -0.5289    1.8773    0.9072 H         1 <0>         0.0689
     25 H6          1.6773   -0.5688    1.1779 H         1 <0>         0.4305
     26 H7         -1.8017   -2.0493    1.2393 H         1 <0>         0.1271
     27 H8         -0.4840   -3.1402    1.7310 H         1 <0>         0.1506
     28 H9         -1.3130   -3.0885    4.0674 H         1 <0>         0.1270
     29 H10        -2.6307   -1.9976    3.5757 H         1 <0>         0.1044
     30 H11        -2.8344   -4.8671    4.8122 H         1 <0>         0.1143
     31 H12        -4.2081   -3.7878    4.4669 H         1 <0>         0.0916
     32 H13        -3.7471   -6.5612    3.2744 H         1 <0>         0.0827
     33 H14        -4.9732   -6.1284    4.4920 H         1 <0>         0.0947
     34 H15        -5.9251   -6.2122    2.1780 H         1 <0>         0.1115
     35 H16        -6.0479   -4.5885    2.8988 H         1 <0>         0.0883
     36 H17        -3.8680   -5.5244    0.9777 H         1 <0>         0.1311
     37 H18        -5.2348   -4.4649    0.5586 H         1 <0>         0.1351
     38 H19        -4.4241   -2.9201    2.2098 H         1 <0>         0.4262
     39 H20        -3.3045   -3.1893    1.0330 H         1 <0>         0.4310
@<TRIPOS>BOND
     1    1    2 1
     2    1   22 1
     3    1   23 1
     4    1   24 1
     5    2    3 1
     6    2    4 1
     7    2    9 1
     8    4    5 1
     9    4    8 2
    10    5    6 1
    11    6    7 2
    12    7    8 1
    13    9   10 1
    14    9   25 1
    15   10   11 2
    16   10   12 2
    17   10   13 1
    18   13   14 1
    19   13   26 1
    20   13   27 1
    21   14   15 1
    22   14   28 1
    23   14   29 1
    24   15   16 1
    25   15   21 1
    26   15   17 1
    27   17   18 1
    28   17   30 1
    29   17   31 1
    30   18   19 1
    31   18   32 1
    32   18   33 1
    33   19   20 1
    34   19   34 1
    35   19   35 1
    36   20   21 1
    37   20   36 1
    38   20   37 1
    39   21   38 1
    40   21   39 1
@<TRIPOS>MOLECULE
ZINC49167323
   34    34     0     0     0
SMALL
USER_CHARGES

@<TRIPOS>ATOM
      1 C1         -0.0173    1.4248    0.0099 C.3       1 <0>         0.0311
      2 O1          0.0021   -0.0041    0.0020 O.3       1 <0>        -0.3928
      3 C2         -1.2953   -0.6030    0.0112 C.3       1 <0>         0.0636
      4 C3         -1.1538   -2.1264    0.0017 C.3       1 <0>        -0.1326
      5 C4         -2.5429   -2.7677    0.0115 C.3       1 <0>         0.1373
      6 N1         -2.4075   -4.2264    0.0023 N.am      1 <0>        -0.7419
      7 C5         -3.5073   -5.0054    0.0087 C.2       1 <0>         0.7154
      8 O2         -4.6119   -4.4975    0.0219 O.2       1 <0>        -0.5604
      9 N2         -3.3827   -6.3473    0.0003 N.am      1 <0>        -0.5297
     10 N3         -2.1099   -6.9325   -0.0150 N.am      1 <0>        -0.5178
     11 C6         -1.9852   -8.2745   -0.0234 C.2       1 <0>         0.5480
     12 O3         -2.9749   -8.9755   -0.0177 O.2       1 <0>        -0.5162
     13 C7         -0.6161   -8.9040   -0.0399 C.3       1 <0>        -0.1456
     14 H1          0.1552   -8.3663    0.5115 H         1 <0>         0.1540
     15 C8         -0.1919   -9.6393   -1.3128 C.3       1 <0>        -0.1025
     16 C9         -0.5413  -10.4321   -0.0509 C.3       1 <0>        -0.0589
     17 H2         -1.4823  -10.9822   -0.0462 H         1 <0>         0.1884
     18 N4          0.5619  -11.0606    0.6801 N.pl3     1 <0>         0.0124
     19 O4          0.3282  -11.8230    1.5888 O.2       1 <0>        -0.1417
     20 O5          1.7060  -10.8169    0.3745 O.3       1 <0>        -0.1544
     21 H3          1.0053    1.8021    0.0021 H         1 <0>         0.0887
     22 H4         -0.5445    1.7859   -0.8732 H         1 <0>         0.0435
     23 H5         -0.5275    1.7763    0.9067 H         1 <0>         0.0435
     24 H6         -1.8320   -0.2936    0.9080 H         1 <0>         0.0550
     25 H7         -1.8490   -0.2840   -0.8718 H         1 <0>         0.0550
     26 H8         -0.6171   -2.4359   -0.8952 H         1 <0>         0.0801
     27 H9         -0.6001   -2.4454    0.8847 H         1 <0>         0.0801
     28 H10        -3.0796   -2.4582    0.9083 H         1 <0>         0.0754
     29 H11        -3.0966   -2.4487   -0.8716 H         1 <0>         0.0755
     30 H12        -1.5262   -4.6316   -0.0082 H         1 <0>         0.3924
     31 H13        -4.1742   -6.9079    0.0048 H         1 <0>         0.4463
     32 H14        -1.3183   -6.3719   -0.0196 H         1 <0>         0.4242
     33 H15        -0.9031   -9.6677   -2.1383 H         1 <0>         0.1383
     34 H16         0.8586   -9.5856   -1.5986 H         1 <0>         0.1461
@<TRIPOS>BOND
     1    1    2 1
     2    1   21 1
     3    1   22 1
     4    1   23 1
     5    2    3 1
     6    3    4 1
     7    3   24 1
     8    3   25 1
     9    4    5 1
    10    4   26 1
    11    4   27 1
    12    5    6 1
    13    5   28 1
    14    5   29 1
    15    6    7 am
    16    6   30 1
    17    7    8 2
    18    7    9 am
    19    9   10 1
    20    9   31 1
    21   10   11 am
    22   10   32 1
    23   11   12 2
    24   11   13 1
    25   13   14 1
    26   13   16 1
    27   13   15 1
    28   15   16 1
    29   15   33 1
    30   15   34 1
    31   16   17 1
    32   16   18 1
    33   18   19 2
    34   18   20 1
@<TRIPOS>MOLECULE
ZINC67066880
   42    43     0     0     0
SMALL
USER_CHARGES

@<TRIPOS>ATOM
      1 C1          0.0696    1.6036   -0.0868 C.3       1 <0>        -0.0733
      2 C2          0.0407    0.0971   -0.1106 C.2       1 <0>         0.2514
      3 N1          0.0655   -0.6640   -1.2105 N.2       1 <0>        -0.5421
      4 C3          0.0287   -1.9258   -0.8827 C.2       1 <0>         0.2949
      5 O1         -0.0215   -2.0108    0.4526 O.3       1 <0>        -0.1055
      6 N2         -0.0069   -0.6758    0.9361 N.2       1 <0>        -0.3419
      7 C4          0.0405   -3.0881   -1.8418 C.3       1 <0>        -0.0349
      8 C5          1.4857   -3.5100   -2.1141 C.3       1 <0>        -0.1287
      9 C6          1.4977   -4.6900   -3.0878 C.3       1 <0>         0.1398
     10 N3          2.8816   -5.0940   -3.3486 N.am      1 <0>        -0.7452
     11 C7          3.1380   -6.1209   -4.1830 C.2       1 <0>         0.6989
     12 O2          2.2208   -6.7120   -4.7193 O.2       1 <0>        -0.5716
     13 N4          4.4111   -6.4925   -4.4228 N.am      1 <0>        -0.7388
     14 C8          4.6899   -7.6087   -5.3298 C.3       1 <0>         0.1529
     15 H1          4.0000   -8.4276   -5.1255 H         1 <0>         0.1199
     16 C9          6.1299   -8.0871   -5.1291 C.3       1 <0>        -0.1254
     17 C10         7.0437   -6.9198   -4.8032 C.3       1 <0>        -0.1252
     18 C11         7.2164   -5.9385   -5.9481 C.3       1 <0>        -0.1458
     19 C12         5.9051   -5.2076   -6.2423 C.3       1 <0>         0.0942
     20 N5          5.1111   -6.0222   -7.1765 N.am      1 <0>        -0.7215
     21 C13         4.5266   -7.1517   -6.7642 C.2       1 <0>         0.5130
     22 O3          3.8697   -7.8148   -7.5387 O.2       1 <0>        -0.5332
     23 H2          1.1035    1.9466   -0.0488 H         1 <0>         0.0973
     24 H3         -0.4087    1.9905   -0.9866 H         1 <0>         0.0983
     25 H4         -0.4651    1.9634    0.7923 H         1 <0>         0.0919
     26 H5         -0.5062   -3.9244   -1.4059 H         1 <0>         0.1116
     27 H6         -0.4340   -2.7920   -2.7774 H         1 <0>         0.1203
     28 H7          2.0323   -2.6737   -2.5499 H         1 <0>         0.0828
     29 H8          1.9602   -3.8061   -1.1785 H         1 <0>         0.0803
     30 H9          0.9511   -5.5263   -2.6520 H         1 <0>         0.0752
     31 H10         1.0232   -4.3939   -4.0234 H         1 <0>         0.0749
     32 H11         3.6133   -4.6224   -2.9207 H         1 <0>         0.3966
     33 H12         5.1428   -6.0209   -3.9949 H         1 <0>         0.4012
     34 H13         6.1586   -8.8051   -4.3095 H         1 <0>         0.0875
     35 H14         6.4777   -8.5713   -6.0417 H         1 <0>         0.0853
     36 H15         6.6337   -6.3857   -3.9460 H         1 <0>         0.0619
     37 H16         8.0236   -7.3109   -4.5293 H         1 <0>         0.0775
     38 H17         7.9815   -5.2090   -5.6825 H         1 <0>         0.0809
     39 H18         7.5328   -6.4800   -6.8396 H         1 <0>         0.0750
     40 H19         5.3487   -5.0672   -5.3156 H         1 <0>         0.0840
     41 H20         6.1196   -4.2387   -6.6933 H         1 <0>         0.0860
     42 H21         5.0089   -5.7366   -8.0978 H         1 <0>         0.4000
@<TRIPOS>BOND
     1    1    2 1
     2    1   23 1
     3    1   24 1
     4    1   25 1
     5    2    6 2
     6    2    3 1
     7    3    4 2
     8    4    5 1
     9    4    7 1
    10    5    6 1
    11    7    8 1
    12    7   26 1
    13    7   27 1
    14    8    9 1
    15    8   28 1
    16    8   29 1
    17    9   10 1
    18    9   30 1
    19    9   31 1
    20   10   11 am
    21   10   32 1
    22   11   12 2
    23   11   13 am
    24   13   14 1
    25   13   33 1
    26   14   15 1
    27   14   21 1
    28   14   16 1
    29   16   17 1
    30   16   34 1
    31   16   35 1
    32   17   18 1
    33   17   36 1
    34   17   37 1
    35   18   19 1
    36   18   38 1
    37   18   39 1
    38   19   20 1
    39   19   40 1
    40   19   41 1
    41   20   21 am
    42   20   42 1
    43   21   22 2
@<TRIPOS>MOLECULE
ZINC16848328
   28    28     0     0     0
SMALL
USER_CHARGES
1-allyl-5-ethanehydrazonoyl-6-hydroxy-2-thioxo-pyrimidin-4-one
@<TRIPOS>ATOM
      1 C1         -0.1440    0.2305    1.6258 C.3       1 <0>        -0.1422
      2 C2         -0.7181    1.5717    1.2479 C.2       1 <0>         0.0912
      3 N1          0.0725    2.5769    1.0261 N.2       1 <0>        -0.1894
      4 N2          1.4597    2.4151    1.1380 N.pl3     1 <0>        -0.7729
      5 C3         -2.1765    1.7418    1.1303 C.2       1 <0>        -0.2793
      6 C4         -2.9394    2.2343    2.2221 C.2       1 <0>         0.5579
      7 O1         -2.3949    2.5227    3.2729 O.2       1 <0>        -0.4907
      8 N3         -4.2722    2.3789    2.0836 N.am      1 <0>        -0.6070
      9 H1         -4.7976    2.7149    2.8265 H         1 <0>         0.4467
     10 C5         -4.8820    2.0632    0.9279 C.2       1 <0>         0.5306
     11 S1         -6.5771    2.2628    0.7950 S.2       1 <0>        -0.5140
     12 N4         -4.1913    1.5940   -0.1260 N.pl3     1 <0>        -0.4622
     13 C6         -2.8341    1.4291   -0.0532 C.2       1 <0>         0.4387
     14 O2         -2.1447    0.9639   -1.1152 O.3       1 <0>        -0.4497
     15 C7         -4.8969    1.2622   -1.3662 C.3       1 <0>         0.1194
     16 C8         -4.9460    2.4770   -2.2566 C.2       1 <0>        -0.1821
     17 C9         -4.4876    2.4099   -3.4820 C.2       1 <0>        -0.1496
     18 H2          0.0317    0.2004    2.7011 H         1 <0>         0.0827
     19 H3          0.7981    0.0772    1.0993 H         1 <0>         0.0704
     20 H4         -0.8464   -0.5561    1.3502 H         1 <0>         0.0768
     21 H5          2.0505    3.1663    0.9722 H         1 <0>         0.4215
     22 H6          1.8292    1.5519    1.3812 H         1 <0>         0.3794
     23 H7         -1.2019    0.7923   -0.9857 H         1 <0>         0.4387
     24 H8         -4.3711    0.4568   -1.8791 H         1 <0>         0.1124
     25 H9         -5.9122    0.9421   -1.1321 H         1 <0>         0.1395
     26 H10        -5.3590    3.4030   -1.8845 H         1 <0>         0.1223
     27 H11        -4.0746    1.4840   -3.8541 H         1 <0>         0.1028
     28 H12        -4.5228    3.2806   -4.1201 H         1 <0>         0.1082
@<TRIPOS>BOND
     1    1    2 1
     2    1   18 1
     3    1   19 1
     4    1   20 1
     5    2    3 2
     6    2    5 1
     7    3    4 1
     8    4   21 1
     9    4   22 1
    10    5   13 2
    11    5    6 1
    12    6    7 2
    13    6    8 am
    14    8    9 1
    15    8   10 1
    16   10   11 2
    17   10   12 1
    18   12   13 1
    19   12   15 1
    20   13   14 1
    21   14   23 1
    22   15   16 1
    23   15   24 1
    24   15   25 1
    25   16   17 2
    26   16   26 1
    27   17   27 1
    28   17   28 1
@<TRIPOS>MOLECULE
ZINC40329449
   42    43     0     0     0
SMALL
USER_CHARGES

@<TRIPOS>ATOM
      1 C1          0.6119    0.8103   -0.7314 C.3       1 <0>         0.1039
      2 N1          0.8962    0.5570   -2.1460 N.am      1 <0>        -0.6381
      3 C2          2.1678    0.9944   -2.7274 C.3       1 <0>         0.0641
      4 C3         -0.0121   -0.0784   -2.9126 C.2       1 <0>         0.7110
      5 O1         -1.1472   -0.2357   -2.5062 O.2       1 <0>        -0.5783
      6 N2          0.3378   -0.5395   -4.1298 N.am      1 <0>        -0.6314
      7 C4         -0.6847   -0.8034   -5.1520 C.3       1 <0>         0.1199
      8 C5         -0.3300   -0.0107   -6.4161 C.3       1 <0>         0.0951
      9 N3          1.0809   -0.2580   -6.7451 N.am      1 <0>        -0.6084
     10 C6          2.1033    0.0059   -5.7229 C.3       1 <0>         0.0875
     11 C7          1.7491   -0.7815   -4.4607 C.3       1 <0>         0.0568
     12 C8          1.4307   -0.7190   -7.9622 C.2       1 <0>         0.5785
     13 O2          0.5713   -1.0309   -8.7646 O.2       1 <0>        -0.5439
     14 C9          2.8522   -0.8451   -8.3205 C.ar      1 <0>        -0.2785
     15 C10         3.7108    0.2512   -8.1840 C.ar      1 <0>         0.0057
     16 C11         5.0291    0.1340   -8.5159 C.ar      1 <0>        -0.2534
     17 C12         5.5317   -1.0759   -8.9932 C.ar      1 <0>         0.2838
     18 C13         4.6944   -2.1742   -9.1350 C.ar      1 <0>        -0.2892
     19 C14         3.3543   -2.0691   -8.7957 C.ar      1 <0>         0.3134
     20 N4          2.5116   -3.1651   -8.9299 N.pl3     1 <0>        -0.8613
     21 N5          6.8771   -1.1827   -9.3290 N.pl3     1 <0>        -0.8676
     22 H1          0.1179    1.7763   -0.6274 H         1 <0>         0.0550
     23 H2         -0.0391    0.0259   -0.3455 H         1 <0>         0.0745
     24 H3          1.5455    0.8172   -0.1688 H         1 <0>         0.0697
     25 H4          2.4617    1.9458   -2.2843 H         1 <0>         0.0717
     26 H5          2.9354    0.2472   -2.5260 H         1 <0>         0.0644
     27 H6          2.0523    1.1155   -3.8045 H         1 <0>         0.0848
     28 H7         -0.7055   -1.8687   -5.3820 H         1 <0>         0.0714
     29 H8         -1.6605   -0.4870   -4.7835 H         1 <0>         0.1022
     30 H9         -0.9611   -0.3380   -7.2423 H         1 <0>         0.1073
     31 H10        -0.4823    1.0534   -6.2354 H         1 <0>         0.0720
     32 H11         3.0791   -0.3105   -6.0913 H         1 <0>         0.1079
     33 H12         2.1242    1.0712   -5.4929 H         1 <0>         0.0742
     34 H13         2.3801   -0.4507   -3.6358 H         1 <0>         0.1266
     35 H14         1.9055   -1.8452   -4.6404 H         1 <0>         0.0713
     36 H15         3.3293    1.1920   -7.8157 H         1 <0>         0.1231
     37 H16         5.6871    0.9836   -8.4085 H         1 <0>         0.1226
     38 H17         5.0871   -3.1098   -9.5050 H         1 <0>         0.1236
     39 H18         1.5607   -3.0689   -8.7643 H         1 <0>         0.4064
     40 H19         2.8740   -4.0267   -9.1891 H         1 <0>         0.4000
     41 H20         7.4637   -0.4165   -9.2309 H         1 <0>         0.4015
     42 H21         7.2288   -2.0235   -9.6612 H         1 <0>         0.4003
@<TRIPOS>BOND
     1    1    2 1
     2    1   22 1
     3    1   23 1
     4    1   24 1
     5    2    3 1
     6    2    4 am
     7    3   25 1
     8    3   26 1
     9    3   27 1
    10    4    5 2
    11    4    6 am
    12    6   11 1
    13    6    7 1
    14    7    8 1
    15    7   28 1
    16    7   29 1
    17    8    9 1
    18    8   30 1
    19    8   31 1
    20    9   10 1
    21    9   12 am
    22   10   11 1
    23   10   32 1
    24   10   33 1
    25   11   34 1
    26   11   35 1
    27   12   13 2
    28   12   14 1
    29   14   19 ar
    30   14   15 ar
    31   15   16 ar
    32   15   36 1
    33   16   17 ar
    34   16   37 1
    35   17   18 ar
    36   17   21 1
    37   18   19 ar
    38   18   38 1
    39   19   20 1
    40   20   39 1
    41   20   40 1
    42   21   41 1
    43   21   42 1
@<TRIPOS>MOLECULE
ZINC49776857
   37    38     0     0     0
SMALL
NO_CHARGES

@<TRIPOS>ATOM
      1 C1         -1.5133    6.2121   -3.2132 C.3       1 <0>        -0.0594
      2 C2         -2.4518    5.1409   -2.7203 C.2       1 <0>         0.2240
      3 N1         -2.0952    3.9080   -2.5417 N.2       1 <0>        -0.6147
      4 H1         -3.1187    2.7845   -1.0629 H         1 <0>         0.1196
      5 C3         -3.2906    3.1938   -2.0583 C.3       1 <0>         0.1380
      6 C4         -4.3458    4.2829   -2.0155 C.2       1 <0>         0.1846
      7 N2         -3.7341    5.3689   -2.4181 N.2       1 <0>        -0.5831
      8 N3         -5.6450    4.1594   -1.6358 N.pl3     1 <0>        -0.8183
      9 N4         -3.6747    2.1302   -2.9960 N.4       1 <0>        -0.3403
     10 C5         -4.0874    2.7293   -4.2708 C.3       1 <0>        -0.0105
     11 C6         -4.4111    1.6233   -5.2775 C.3       1 <0>        -0.1401
     12 C7         -5.5475    0.7566   -4.7274 C.3       1 <0>        -0.1257
     13 C8         -5.1349    0.1969   -3.3630 C.3       1 <0>        -0.1264
     14 C9         -4.7844    1.3558   -2.4273 C.3       1 <0>        -0.0137
     15 H2         -5.6542    2.0018   -2.3081 H         1 <0>         0.1249
     16 C10        -4.3779    0.8098   -1.0828 C.2       1 <0>         0.5058
     17 O1         -3.2109    0.5740   -0.8517 O.2       1 <0>        -0.5181
     18 N5         -5.3112    0.5834   -0.1372 N.am      1 <0>        -0.7248
     19 C11        -4.9160    0.0526    1.1698 C.3       1 <0>         0.0832
     20 H3         -1.5495    6.2540   -4.3018 H         1 <0>         0.0631
     21 H4         -1.8141    7.1758   -2.8023 H         1 <0>         0.0669
     22 H5         -0.4977    5.9812   -2.8920 H         1 <0>         0.0678
     23 H6         -5.9595    3.3288   -1.2459 H         1 <0>         0.3910
     24 H7         -4.9720    3.3461   -4.1124 H         1 <0>         0.1044
     25 H8         -3.2788    3.3484   -4.6594 H         1 <0>         0.1087
     26 H9         -4.7190    2.0702   -6.2228 H         1 <0>         0.0915
     27 H10        -3.5269    1.0060   -5.4368 H         1 <0>         0.0766
     28 H11        -6.4468    1.3623   -4.6161 H         1 <0>         0.0750
     29 H12        -5.7437   -0.0664   -5.4147 H         1 <0>         0.0842
     30 H13        -5.9602   -0.3758   -2.9398 H         1 <0>         0.0921
     31 H14        -4.2658   -0.4500   -3.4826 H         1 <0>         0.0845
     32 H15        -6.2446    0.7720   -0.3220 H         1 <0>         0.4038
     33 H16        -4.4344   -0.9163    1.0380 H         1 <0>         0.0655
     34 H17        -4.2199    0.7425    1.6468 H         1 <0>         0.0654
     35 H18        -5.7998   -0.0634    1.7972 H         1 <0>         0.0822
     36 H19        -2.8861    1.5206   -3.1528 H         1 <0>         0.3693
     37 H20        -6.2577    4.9019   -1.7548 H         1 <0>         0.4030
@<TRIPOS>BOND
     1    1   20 1
     2    1   21 1
     3    1   22 1
     4    1    2 1
     5    2    3 2
     6    2    7 1
     7    3    5 1
     8    4    5 1
     9    5    9 1
    10    5    6 1
    11    6    7 2
    12    6    8 1
    13    8   23 1
    14    8   37 1
    15    9   14 1
    16    9   10 1
    17    9   36 1
    18   10   11 1
    19   10   24 1
    20   10   25 1
    21   11   12 1
    22   11   26 1
    23   11   27 1
    24   12   13 1
    25   12   28 1
    26   12   29 1
    27   13   14 1
    28   13   30 1
    29   13   31 1
    30   14   15 1
    31   14   16 1
    32   16   17 2
    33   16   18 am
    34   18   19 1
    35   18   32 1
    36   19   33 1
    37   19   34 1
    38   19   35 1
@<TRIPOS>MOLECULE
ZINC52298092
   36    37     0     0     0
SMALL
USER_CHARGES

@<TRIPOS>ATOM
      1 C1          0.3133   -3.7975    4.2411 C.3       1 <0>        -0.1272
      2 C2          0.4872   -3.6287    2.7304 C.3       1 <0>        -0.1599
      3 H1         -0.3805   -3.8910    2.1251 H         1 <0>         0.1144
      4 C3          1.8708   -3.9131    2.1424 C.3       1 <0>        -0.1859
      5 C4          1.3638   -2.4724    2.2450 C.3       1 <0>         0.0774
      6 H2          1.0730   -1.9743    1.3202 H         1 <0>         0.1394
      7 N1          1.9723   -1.6117    3.2624 N.am      1 <0>        -0.6917
      8 C5          2.3112   -0.3435    2.9570 C.2       1 <0>         0.5317
      9 O1          2.2015    0.0558    1.8171 O.2       1 <0>        -0.5200
     10 C6          2.8266    0.5784    4.0320 C.3       1 <0>        -0.0172
     11 C7          3.3097    1.8861    3.3973 C.3       1 <0>        -0.1297
     12 C8          4.4808    1.5862    2.4580 C.3       1 <0>         0.0537
     13 O2          5.5239    0.9403    3.1907 O.3       1 <0>        -0.3767
     14 C9          5.1436   -0.3108    3.7671 C.3       1 <0>         0.0559
     15 C10         3.9991   -0.0871    4.7590 C.3       1 <0>        -0.1343
     16 C11         1.7237    0.8711    5.0164 C.2       1 <0>         0.3780
     17 N2          1.9042    0.6433    6.2752 N.2       1 <0>        -0.4113
     18 O3          0.8680    0.9183    7.2001 O.3       1 <0>        -0.4225
     19 N3          0.5234    1.3813    4.5742 N.pl3     1 <0>        -0.8653
     20 H3         -0.1415   -2.8986    4.6572 H         1 <0>         0.0606
     21 H4         -0.3296   -4.6551    4.4392 H         1 <0>         0.0672
     22 H5          1.2873   -3.9592    4.7031 H         1 <0>         0.0555
     23 H6          2.6572   -4.2205    2.8318 H         1 <0>         0.0989
     24 H7          1.9134   -4.3621    1.1501 H         1 <0>         0.1051
     25 H8          2.1313   -1.9545    4.1557 H         1 <0>         0.4039
     26 H9          2.4956    2.3389    2.8313 H         1 <0>         0.0877
     27 H10         3.6362    2.5717    4.1792 H         1 <0>         0.0878
     28 H11         4.1434    0.9329    1.6534 H         1 <0>         0.0726
     29 H12         4.8564    2.5185    2.0362 H         1 <0>         0.1023
     30 H13         4.8149   -0.9889    2.9797 H         1 <0>         0.0503
     31 H14         5.9967   -0.7451    4.2884 H         1 <0>         0.1053
     32 H15         4.3396    0.5586    5.5685 H         1 <0>         0.1007
     33 H16         3.6780   -1.0456    5.1669 H         1 <0>         0.0826
     34 H17         1.0959    0.7157    8.1178 H         1 <0>         0.4019
     35 H18         0.4135    1.6234    3.6413 H         1 <0>         0.3988
     36 H19        -0.2122    1.4986    5.1955 H         1 <0>         0.4102
@<TRIPOS>BOND
     1    1    2 1
     2    1   20 1
     3    1   21 1
     4    1   22 1
     5    2    3 1
     6    2    5 1
     7    2    4 1
     8    4    5 1
     9    4   23 1
    10    4   24 1
    11    5    6 1
    12    5    7 1
    13    7    8 am
    14    7   25 1
    15    8    9 2
    16    8   10 1
    17   10   15 1
    18   10   11 1
    19   10   16 1
    20   11   12 1
    21   11   26 1
    22   11   27 1
    23   12   13 1
    24   12   28 1
    25   12   29 1
    26   13   14 1
    27   14   15 1
    28   14   30 1
    29   14   31 1
    30   15   32 1
    31   15   33 1
    32   16   17 2
    33   16   19 1
    34   17   18 1
    35   18   34 1
    36   19   35 1
    37   19   36 1
@<TRIPOS>MOLECULE
ZINC62947083
   36    37     0     0     0
SMALL
USER_CHARGES

@<TRIPOS>ATOM
      1 C1          1.0838   -0.4461   -0.7547 C.ar      1 <0>        -0.0416
      2 C2          2.2591    0.3158   -0.7354 C.ar      1 <0>        -0.1617
      3 C3          2.2958    1.4817    0.0328 C.ar      1 <0>         0.1192
      4 N1          1.2448    1.8613    0.7291 N.ar      1 <0>        -0.4787
      5 C4          0.1228    1.1684    0.7339 C.ar      1 <0>         0.0694
      6 C5          0.0017   -0.0036   -0.0037 C.ar      1 <0>         0.0559
      7 N2         -1.1954   -0.7291    0.0100 N.am      1 <0>        -0.6572
      8 C6         -1.1707   -2.0722   -0.0992 C.2       1 <0>         0.5067
      9 O1         -0.1099   -2.6601   -0.1130 O.2       1 <0>        -0.5076
     10 C7         -2.4611   -2.8435   -0.2040 C.3       1 <0>        -0.0959
     11 H1         -3.0658   -2.6626    0.6847 H         1 <0>         0.1093
     12 C8         -3.2294   -2.3858   -1.4455 C.3       1 <0>        -0.1265
     13 C9         -4.5395   -3.1689   -1.5519 C.3       1 <0>        -0.1131
     14 C10        -4.2326   -4.6635   -1.6644 C.3       1 <0>        -0.1444
     15 C11        -3.4643   -5.1212   -0.4230 C.3       1 <0>         0.0282
     16 H2         -4.0689   -4.9404    0.4657 H         1 <0>         0.1426
     17 C12        -2.1542   -4.3382   -0.3165 C.3       1 <0>        -0.1292
     18 N3         -3.1696   -6.5563   -0.5310 N.4       1 <0>        -0.6355
     19 C13         3.4393   -0.1068   -1.5136 C.2       1 <0>         0.5243
     20 O2          3.3965   -1.1296   -2.1825 O.co2     1 <0>        -0.6814
     21 O3          4.4604    0.5658   -1.4896 O.co2     1 <0>        -0.6742
     22 H3          1.0190   -1.3507   -1.3412 H         1 <0>         0.1458
     23 H4          3.1960    2.0780    0.0562 H         1 <0>         0.1675
     24 H5         -0.7148    1.5167    1.3200 H         1 <0>         0.1476
     25 H6         -2.0427   -0.2651    0.0981 H         1 <0>         0.4082
     26 H7         -3.4481   -1.3210   -1.3653 H         1 <0>         0.0863
     27 H8         -2.6248   -2.5667   -2.3341 H         1 <0>         0.0817
     28 H9         -5.1442   -2.9880   -0.6632 H         1 <0>         0.0777
     29 H10        -5.0869   -2.8428   -2.4363 H         1 <0>         0.0902
     30 H11        -5.1659   -5.2214   -1.7402 H         1 <0>         0.0892
     31 H12        -3.6279   -4.8444   -2.5531 H         1 <0>         0.0907
     32 H13        -1.5495   -4.5191   -1.2052 H         1 <0>         0.1005
     33 H14        -1.6068   -4.6642    0.5679 H         1 <0>         0.0987
     34 H15        -2.6099   -6.7238   -1.3536 H         1 <0>         0.4352
     35 H16        -2.6629   -6.8582    0.2877 H         1 <0>         0.4374
     36 H17        -4.0336   -7.0727   -0.6012 H         1 <0>         0.4347
@<TRIPOS>BOND
     1    1    6 ar
     2    1    2 ar
     3    1   22 1
     4    2    3 ar
     5    2   19 1
     6    3    4 ar
     7    3   23 1
     8    4    5 ar
     9    5    6 ar
    10    5   24 1
    11    6    7 1
    12    7    8 am
    13    7   25 1
    14    8    9 2
    15    8   10 1
    16   10   11 1
    17   10   17 1
    18   10   12 1
    19   12   13 1
    20   12   26 1
    21   12   27 1
    22   13   14 1
    23   13   28 1
    24   13   29 1
    25   14   15 1
    26   14   30 1
    27   14   31 1
    28   15   16 1
    29   15   17 1
    30   15   18 1
    31   17   32 1
    32   17   33 1
    33   18   34 1
    34   18   35 1
    35   18   36 1
    36   19   20 2
    37   19   21 1
@<TRIPOS>MOLECULE
ZINC33028050
   37    38     0     0     0
SMALL
USER_CHARGES
1-(4-amino-3-nitro-benzoyl)piperidine-4-carboxamide
@<TRIPOS>ATOM
      1 C1          1.0548   -2.0405    0.6716 C.ar      1 <0>        -0.0007
      2 C2          0.9831   -0.6669    0.7172 C.ar      1 <0>        -0.2101
      3 C3         -0.0462    0.0001    0.0590 C.ar      1 <0>         0.3156
      4 C4         -1.0090   -0.7200   -0.6433 C.ar      1 <0>        -0.1366
      5 C5         -0.9396   -2.0931   -0.6975 C.ar      1 <0>         0.0485
      6 C6          0.0929   -2.7659   -0.0370 C.ar      1 <0>        -0.1978
      7 C7          0.1671   -4.2384   -0.0884 C.2       1 <0>         0.5702
      8 O1         -0.8538   -4.8974   -0.1334 O.2       1 <0>        -0.5270
      9 N1          1.3664   -4.8532   -0.0853 N.am      1 <0>        -0.6086
     10 C8          2.6085   -4.0716   -0.1561 C.3       1 <0>         0.0897
     11 C9          3.4586   -4.5920   -1.3137 C.3       1 <0>        -0.1270
     12 C10         3.6721   -6.0985   -1.1499 C.3       1 <0>        -0.1081
     13 C11         2.3194   -6.8136   -1.1821 C.3       1 <0>        -0.1162
     14 C12         1.4565   -6.3181   -0.0174 C.3       1 <0>         0.1098
     15 C13         4.5363   -6.6083   -2.2743 C.2       1 <0>         0.5197
     16 O2          4.1124   -7.4595   -3.0271 O.2       1 <0>        -0.5465
     17 N2          5.7805   -6.1183   -2.4433 N.am      1 <0>        -0.8790
     18 N3         -2.1055   -0.0073   -1.3367 N.pl3     1 <0>         0.0400
     19 O3         -3.2273   -0.4814   -1.3502 O.2       1 <0>        -0.1386
     20 O4         -1.8858    1.0534   -1.8937 O.3       1 <0>        -0.1855
     21 N4         -0.1164    1.3879    0.1078 N.pl3     1 <0>        -0.8651
     22 H1          1.8533   -2.5574    1.1831 H         1 <0>         0.1524
     23 H2          1.7261   -0.1058    1.2646 H         1 <0>         0.1510
     24 H3         -1.6843   -2.6508   -1.2458 H         1 <0>         0.1550
     25 H4          2.3657   -3.0116   -0.3216 H         1 <0>         0.1023
     26 H5          3.1628   -4.1777    0.7881 H         1 <0>         0.0794
     27 H6          2.9425   -4.3953   -2.2650 H         1 <0>         0.0763
     28 H7          4.4325   -4.0805   -1.3123 H         1 <0>         0.0838
     29 H8          4.1796   -6.3021   -0.1954 H         1 <0>         0.1010
     30 H9          1.8126   -6.5967   -2.1340 H         1 <0>         0.0769
     31 H10         2.4758   -7.8984   -1.0889 H         1 <0>         0.0871
     32 H11         1.9146   -6.6134    0.9381 H         1 <0>         0.0736
     33 H12         0.4480   -6.7513   -0.0898 H         1 <0>         0.1019
     34 H13         6.4114   -6.4904   -3.2640 H         1 <0>         0.4227
     35 H14         6.1650   -5.3463   -1.7605 H         1 <0>         0.4181
     36 H15        -0.9293    1.9161   -0.4119 H         1 <0>         0.4378
     37 H16         0.6410    1.9576    0.6662 H         1 <0>         0.4343
@<TRIPOS>BOND
     1    1    6 ar
     2    1    2 ar
     3    1   22 1
     4    2    3 ar
     5    2   23 1
     6    3    4 ar
     7    3   21 1
     8    4    5 ar
     9    4   18 1
    10    5    6 ar
    11    5   24 1
    12    6    7 1
    13    7    8 2
    14    7    9 am
    15    9   14 1
    16    9   10 1
    17   10   11 1
    18   10   25 1
    19   10   26 1
    20   11   12 1
    21   11   27 1
    22   11   28 1
    23   12   13 1
    24   12   15 1
    25   12   29 1
    26   13   14 1
    27   13   30 1
    28   13   31 1
    29   14   32 1
    30   14   33 1
    31   15   16 2
    32   15   17 am
    33   17   34 1
    34   17   35 1
    35   18   19 2
    36   18   20 1
    37   21   36 1
    38   21   37 1
@<TRIPOS>MOLECULE
ZINC41158756
   34    36     0     0     0
SMALL
USER_CHARGES

@<TRIPOS>ATOM
      1 C1         -0.0178    1.4608    0.0101 C.3       1 <0>         0.0979
      2 N1          0.0021   -0.0041    0.0020 N.pl3     1 <0>        -0.3734
      3 C2          0.0078   -0.7920   -1.0936 C.2       1 <0>         0.0780
      4 C3          0.0272   -2.0789   -0.6760 C.2       1 <0>        -0.2631
      5 C4          0.0335   -2.0775    0.7227 C.2       1 <0>         0.0641
      6 N2          0.0246   -0.8342    1.1302 N.2       1 <0>        -0.2948
      7 C5          0.0390   -3.2983   -1.5614 C.3       1 <0>         0.2096
      8 N3          1.4239   -3.6749   -1.8554 N.pl3     1 <0>        -0.7443
      9 C6          1.6905   -4.7853   -2.6654 C.ar      1 <0>         0.1856
     10 C7          0.6440   -5.5227   -3.1924 C.ar      1 <0>        -0.1744
     11 C8          0.9032   -6.6289   -3.9987 C.ar      1 <0>         0.1316
     12 C9          2.2212   -6.9777   -4.2644 C.ar      1 <0>        -0.1492
     13 C10         3.2670   -6.2472   -3.7431 C.ar      1 <0>        -0.1052
     14 C11         3.0095   -5.1423   -2.9442 C.ar      1 <0>         0.1360
     15 N4          4.0698   -4.3919   -2.4157 N.pl3     1 <0>        -0.8829
     16 C12         2.1672   -8.2000   -5.1523 C.3       1 <0>        -0.1089
     17 C13         0.6869   -8.4624   -5.3294 C.2       1 <0>         0.5270
     18 O1          0.1865   -9.3588   -5.9754 O.2       1 <0>        -0.5122
     19 N5          0.0314   -7.5166   -4.6359 N.am      1 <0>        -0.6579
     20 H1          1.0048    1.8381    0.0023 H         1 <0>         0.0774
     21 H2         -0.5450    1.8219   -0.8730 H         1 <0>         0.0897
     22 H3         -0.5280    1.8123    0.9069 H         1 <0>         0.0917
     23 H4         -0.0017   -0.4556   -2.1198 H         1 <0>         0.1758
     24 H5          0.0482   -2.9516    1.3568 H         1 <0>         0.1846
     25 H6         -0.4613   -4.1220   -1.0521 H         1 <0>         0.0674
     26 H7         -0.4826   -3.0763   -2.4924 H         1 <0>         0.0637
     27 H8          2.1562   -3.1550   -1.4888 H         1 <0>         0.3953
     28 H9         -0.3760   -5.2400   -2.9775 H         1 <0>         0.1262
     29 H10         4.2860   -6.5322   -3.9592 H         1 <0>         0.1271
     30 H11         3.8867   -3.6221   -1.8545 H         1 <0>         0.3911
     31 H12         4.9862   -4.6426   -2.6113 H         1 <0>         0.3994
     32 H13         2.6362   -7.9940   -6.1145 H         1 <0>         0.1184
     33 H14         2.6495   -9.0474   -4.6651 H         1 <0>         0.1186
     34 H15        -0.9353   -7.4565   -4.5837 H         1 <0>         0.4102
@<TRIPOS>BOND
     1    1    2 1
     2    1   20 1
     3    1   21 1
     4    1   22 1
     5    2    6 1
     6    2    3 1
     7    3    4 2
     8    3   23 1
     9    4    5 1
    10    4    7 1
    11    5    6 2
    12    5   24 1
    13    7    8 1
    14    7   25 1
    15    7   26 1
    16    8    9 1
    17    8   27 1
    18    9   14 ar
    19    9   10 ar
    20   10   11 ar
    21   10   28 1
    22   11   19 1
    23   11   12 ar
    24   12   13 ar
    25   12   16 1
    26   13   14 ar
    27   13   29 1
    28   14   15 1
    29   15   30 1
    30   15   31 1
    31   16   17 1
    32   16   32 1
    33   16   33 1
    34   17   18 2
    35   17   19 am
    36   19   34 1
@<TRIPOS>MOLECULE
ZINC48844515
   39    40     0     0     0
SMALL
USER_CHARGES

@<TRIPOS>ATOM
      1 C1          0.1711    1.4992   -0.0109 C.3       1 <0>        -0.0880
      2 C2          0.0930   -0.0057   -0.0081 C.ar      1 <0>         0.1459
      3 C3         -0.1002   -0.6908   -1.2122 C.ar      1 <0>        -0.1227
      4 C4         -0.1704   -2.0884   -1.1951 C.ar      1 <0>        -0.0638
      5 C5         -0.0447   -2.7382    0.0215 C.ar      1 <0>        -0.1132
      6 C6          0.1457   -1.9854    1.1774 C.ar      1 <0>         0.0299
      7 N1          0.2125   -0.6607    1.1245 N.ar      1 <0>        -0.4756
      8 C7          0.2809   -2.6735    2.4851 C.2       1 <0>         0.5935
      9 O1          0.2252   -3.8857    2.5423 O.2       1 <0>        -0.5192
     10 N2          0.4655   -1.9536    3.6095 N.am      1 <0>        -0.7418
     11 C8          0.5989   -2.6330    4.9006 C.3       1 <0>         0.1284
     12 H1         -0.0405   -3.5156    4.9145 H         1 <0>         0.1129
     13 C9          2.0551   -3.0549    5.1068 C.3       1 <0>        -0.1303
     14 C10         2.1945   -3.7644    6.4552 C.3       1 <0>        -0.1274
     15 C11         1.7752   -2.8131    7.5778 C.3       1 <0>        -0.1190
     16 C12         0.3191   -2.3912    7.3715 C.3       1 <0>        -0.1363
     17 C13         0.1797   -1.6817    6.0232 C.3       1 <0>         0.0197
     18 H2          0.8192   -0.7991    6.0093 H         1 <0>         0.1491
     19 N3         -1.2184   -1.2767    5.8252 N.4       1 <0>        -0.6367
     20 C14        -0.2289    0.0505   -2.4838 C.2       1 <0>         0.5226
     21 O2         -1.1663   -0.1805   -3.2339 O.co2     1 <0>        -0.6701
     22 O3          0.6020    0.8949   -2.7859 O.co2     1 <0>        -0.6653
     23 H3          1.1890    1.8098   -0.2465 H         1 <0>         0.0847
     24 H4         -0.5129    1.8972   -0.7605 H         1 <0>         0.0827
     25 H5         -0.1063    1.8793    0.9723 H         1 <0>         0.0605
     26 H6         -0.3192   -2.6463   -2.1077 H         1 <0>         0.1440
     27 H7         -0.0941   -3.8158    0.0732 H         1 <0>         0.1415
     28 H8          0.5100   -0.9857    3.5639 H         1 <0>         0.4123
     29 H9          2.3538   -3.7326    4.3070 H         1 <0>         0.0909
     30 H10         2.6945   -2.1723    5.0929 H         1 <0>         0.0781
     31 H11         1.5550   -4.6470    6.4691 H         1 <0>         0.0731
     32 H12         3.2319   -4.0649    6.6021 H         1 <0>         0.0823
     33 H13         1.8745   -3.3186    8.5383 H         1 <0>         0.0869
     34 H14         2.4147   -1.9305    7.5638 H         1 <0>         0.0767
     35 H15        -0.3204   -3.2739    7.3855 H         1 <0>         0.0911
     36 H16         0.0204   -1.7135    8.1713 H         1 <0>         0.0938
     37 H17        -1.8103   -2.0937    5.8381 H         1 <0>         0.4344
     38 H18        -1.4949   -0.6493    6.5655 H         1 <0>         0.4366
     39 H19        -1.3103   -0.8088    4.9360 H         1 <0>         0.4378
@<TRIPOS>BOND
     1    1    2 1
     2    1   23 1
     3    1   24 1
     4    1   25 1
     5    2    7 ar
     6    2    3 ar
     7    3    4 ar
     8    3   20 1
     9    4    5 ar
    10    4   26 1
    11    5    6 ar
    12    5   27 1
    13    6    7 ar
    14    6    8 1
    15    8    9 2
    16    8   10 am
    17   10   11 1
    18   10   28 1
    19   11   12 1
    20   11   17 1
    21   11   13 1
    22   13   14 1
    23   13   29 1
    24   13   30 1
    25   14   15 1
    26   14   31 1
    27   14   32 1
    28   15   16 1
    29   15   33 1
    30   15   34 1
    31   16   17 1
    32   16   35 1
    33   16   36 1
    34   17   18 1
    35   17   19 1
    36   19   37 1
    37   19   38 1
    38   19   39 1
    39   20   21 2
    40   20   22 1
@<TRIPOS>MOLECULE
ZINC14555946
   38    40     0     0     0
SMALL
USER_CHARGES

@<TRIPOS>ATOM
      1 C1         -0.0187    1.5257    0.0104 C.3       1 <0>        -0.1237
      2 C2          1.4165    2.0558   -0.0004 C.3       1 <0>        -0.1122
      3 C3          2.1319    1.5652   -1.2608 C.3       1 <0>        -0.1252
      4 C4          2.1495    0.0352   -1.2737 C.3       1 <0>         0.2756
      5 C5          0.7153   -0.4978   -1.2585 C.3       1 <0>        -0.1380
      6 C6          0.0021   -0.0041    0.0020 C.3       1 <0>        -0.1135
      7 O1          2.8164   -0.4234   -2.4601 O.3       1 <0>        -0.3567
      8 C7          3.6366   -1.5215   -2.0351 C.3       1 <0>         0.0744
      9 H1          3.0103   -2.4133   -2.0079 H         1 <0>         0.0848
     10 C8          4.7866   -1.7910   -2.9548 C.3       1 <0>         0.1400
     11 H2          4.4387   -1.6744   -3.9812 H         1 <0>         0.0689
     12 C9          5.9966   -0.9008   -2.7586 C.3       1 <0>         0.0477
     13 H3          5.7751    0.0948   -3.1431 H         1 <0>         0.0815
     14 C10         6.3632   -0.7978   -1.2804 C.3       1 <0>         0.0485
     15 H4          7.2296   -0.1468   -1.1629 H         1 <0>         0.0639
     16 C11         5.1735   -0.2103   -0.5214 C.3       1 <0>         0.0987
     17 H5          5.4513   -0.0487    0.5202 H         1 <0>         0.0792
     18 C12         4.0119   -1.1687   -0.5965 C.3       1 <0>         0.0768
     19 H6          4.2085   -2.0642   -0.0070 H         1 <0>         0.1346
     20 O2          2.8515   -0.4458   -0.1206 O.3       1 <0>        -0.3608
     21 O3          4.7999    1.0357   -1.1130 O.3       1 <0>        -0.5338
     22 O4          6.6673   -2.0974   -0.7701 O.3       1 <0>        -0.5404
     23 O5          7.1033   -1.4469   -3.4791 O.3       1 <0>        -0.5653
     24 O6          5.1976   -3.1476   -2.7740 O.3       1 <0>        -0.5497
     25 H7         -0.5290    1.8772    0.9072 H         1 <0>         0.0634
     26 H8         -0.5460    1.8868   -0.8726 H         1 <0>         0.0608
     27 H9          1.4014    3.1457    0.0078 H         1 <0>         0.0633
     28 H10         1.9445    1.6931    0.8815 H         1 <0>         0.0690
     29 H11         1.6054    1.9300   -2.1428 H         1 <0>         0.0684
     30 H12         3.1552    1.9405   -1.2673 H         1 <0>         0.1018
     31 H13         0.1848   -0.1388   -2.1404 H         1 <0>         0.0790
     32 H14         0.7325   -1.5876   -1.2631 H         1 <0>         0.0667
     33 H15         0.5313   -0.3651    0.8839 H         1 <0>         0.0704
     34 H16        -1.0205   -0.3813    0.0122 H         1 <0>         0.0645
     35 H17         5.5012    1.7014   -1.1039 H         1 <0>         0.3752
     36 H18         7.4067   -2.5322   -1.2165 H         1 <0>         0.3845
     37 H19         7.9169   -0.9301   -3.4012 H         1 <0>         0.3875
     38 H20         5.9415   -3.4110   -3.3329 H         1 <0>         0.3899
@<TRIPOS>BOND
     1    1    6 1
     2    1    2 1
     3    1   25 1
     4    1   26 1
     5    2    3 1
     6    2   27 1
     7    2   28 1
     8    3    4 1
     9    3   29 1
    10    3   30 1
    11    4   20 1
    12    4    5 1
    13    4    7 1
    14    5    6 1
    15    5   31 1
    16    5   32 1
    17    6   33 1
    18    6   34 1
    19    7    8 1
    20    8    9 1
    21    8   18 1
    22    8   10 1
    23   10   11 1
    24   10   12 1
    25   10   24 1
    26   12   13 1
    27   12   14 1
    28   12   23 1
    29   14   15 1
    30   14   16 1
    31   14   22 1
    32   16   17 1
    33   16   18 1
    34   16   21 1
    35   18   19 1
    36   18   20 1
    37   21   35 1
    38   22   36 1
    39   23   37 1
    40   24   38 1
@<TRIPOS>MOLECULE
ZINC58429561
   34    35     0     0     0
SMALL
USER_CHARGES

@<TRIPOS>ATOM
      1 C1          3.6902    5.5795    0.2955 C.2       1 <0>        -0.0848
      2 C2          3.2340    4.2993    0.4348 C.2       1 <0>        -0.0862
      3 C3          4.0099    3.2583   -0.0533 C.2       1 <0>        -0.1956
      4 S1          5.4199    4.1231   -0.7250 S.3       1 <0>         0.1404
      5 C4          4.9113    5.7878   -0.3285 C.2       1 <0>        -0.2154
      6 C5          5.6086    7.0560   -0.5958 C.2       1 <0>         0.6062
      7 O1          5.1078    8.1096   -0.2518 O.2       1 <0>        -0.5182
      8 N1          6.8021    7.0498   -1.2219 N.am      1 <0>        -0.8446
      9 C6          3.7403    1.8118   -0.0243 C.2       1 <0>         0.6031
     10 O2          2.6002    1.4082    0.1043 O.2       1 <0>        -0.5104
     11 N2          4.7567    0.9344   -0.1404 N.am      1 <0>        -0.6074
     12 C7          4.4922   -0.5057   -0.2627 C.3       1 <0>         0.1133
     13 C8          5.2909   -1.2468    0.8142 C.3       1 <0>        -0.1167
     14 C9          6.7690   -0.8673    0.6992 C.3       1 <0>        -0.1096
     15 C10         6.9304    0.6373    0.9280 C.3       1 <0>        -0.1244
     16 C11         6.1501    1.4004   -0.1532 C.3       1 <0>         0.0978
     17 C12         7.5629   -1.6206    1.7352 C.2       1 <0>         0.5206
     18 O3          7.0019   -2.3855    2.4910 O.2       1 <0>        -0.5365
     19 N3          8.8962   -1.4442    1.8220 N.am      1 <0>        -0.8558
     20 H1          3.1091    6.4136    0.6602 H         1 <0>         0.1551
     21 H2          2.2875    4.1015    0.9160 H         1 <0>         0.1560
     22 H3          7.2015    6.2095   -1.4963 H         1 <0>         0.4013
     23 H4          7.2616    7.8857   -1.3981 H         1 <0>         0.4138
     24 H5          3.4279   -0.6948   -0.1233 H         1 <0>         0.1033
     25 H6          4.8008   -0.8514   -1.2493 H         1 <0>         0.0768
     26 H7          4.9191   -0.9672    1.7999 H         1 <0>         0.0787
     27 H8          5.1795   -2.3221    0.6743 H         1 <0>         0.0896
     28 H9          7.1337   -1.1245   -0.2952 H         1 <0>         0.1043
     29 H10         6.5431    0.8992    1.9126 H         1 <0>         0.0792
     30 H11         7.9858    0.9032    0.8691 H         1 <0>         0.0860
     31 H12         6.5911    1.2069   -1.1311 H         1 <0>         0.0846
     32 H13         6.1799    2.4692    0.0584 H         1 <0>         0.0909
     33 H14         9.3449   -0.8325    1.2176 H         1 <0>         0.4012
     34 H15         9.4072   -1.9291    2.4889 H         1 <0>         0.4034
@<TRIPOS>BOND
     1    1    5 2
     2    1    2 1
     3    1   20 1
     4    2    3 2
     5    2   21 1
     6    3    4 1
     7    3    9 1
     8    4    5 1
     9    5    6 1
    10    6    7 2
    11    6    8 am
    12    8   22 1
    13    8   23 1
    14    9   10 2
    15    9   11 am
    16   11   16 1
    17   11   12 1
    18   12   13 1
    19   12   24 1
    20   12   25 1
    21   13   14 1
    22   13   26 1
    23   13   27 1
    24   14   15 1
    25   14   17 1
    26   14   28 1
    27   15   16 1
    28   15   29 1
    29   15   30 1
    30   16   31 1
    31   16   32 1
    32   17   18 2
    33   17   19 am
    34   19   33 1
    35   19   34 1
@<TRIPOS>MOLECULE
ZINC37252570
   32    32     0     0     0
SMALL
USER_CHARGES

@<TRIPOS>ATOM
      1 C1         -0.0165    1.5302    0.0148 C.3       1 <0>        -0.1572
      2 C2          1.4237    2.0521    0.0019 C.3       1 <0>         0.1329
      3 N1          2.1293    1.4649   -1.1452 N.am      1 <0>        -0.6363
      4 C3          2.1294    0.0040   -1.3021 C.3       1 <0>         0.1156
      5 C4          0.6813   -0.4950   -1.2747 C.3       1 <0>        -0.1607
      6 C5         -0.0004   -0.0001    0.0030 C.3       1 <0>         0.0270
      7 N2         -1.3794   -0.5044    0.0488 N.4       1 <0>        -0.5087
      8 C6         -1.3617   -1.9692    0.1582 C.3       1 <0>         0.0113
      9 C7         -2.7979   -2.4945    0.2059 C.3       1 <0>        -0.2168
     10 C8         -2.7797   -3.9972    0.3182 C.2       1 <0>         0.4968
     11 O1         -1.7166   -4.5928    0.3565 O.co2     1 <0>        -0.6872
     12 O2         -3.8282   -4.6173    0.3707 O.co2     1 <0>        -0.6709
     13 C9          2.7640    2.2513   -2.0369 C.2       1 <0>         0.7113
     14 O3          2.6771    3.4610   -1.9507 O.2       1 <0>        -0.5834
     15 N3          3.4950    1.6969   -3.0242 N.am      1 <0>        -0.8645
     16 H1         -0.5229    1.8817    0.9137 H         1 <0>         0.1009
     17 H2         -0.5436    1.8952   -0.8667 H         1 <0>         0.0907
     18 H3          1.4179    3.1382   -0.0896 H         1 <0>         0.1124
     19 H4          1.9251    1.7639    0.9259 H         1 <0>         0.0797
     20 H5          2.5893   -0.2612   -2.2541 H         1 <0>         0.0960
     21 H6          2.6884   -0.4513   -0.4845 H         1 <0>         0.0858
     22 H7          0.1476   -0.1108   -2.1440 H         1 <0>         0.0911
     23 H8          0.6716   -1.5848   -1.2935 H         1 <0>         0.1094
     24 H9          0.5482   -0.3642    0.8717 H         1 <0>         0.1404
     25 H10        -1.8542   -0.1131    0.8484 H         1 <0>         0.4236
     26 H11        -0.8487   -2.3920   -0.7056 H         1 <0>         0.1308
     27 H12        -0.8383   -2.2592    1.0693 H         1 <0>         0.1308
     28 H13        -3.3109   -2.0718    1.0697 H         1 <0>         0.0814
     29 H14        -3.3212   -2.2045   -0.7052 H         1 <0>         0.0808
     30 H15         3.5062    0.7335   -3.1369 H         1 <0>         0.3973
     31 H16         4.0098    2.2612   -3.6220 H         1 <0>         0.4191
     32 H17        -1.8638   -0.2360   -0.7946 H         1 <0>         0.4204
@<TRIPOS>BOND
     1    1    6 1
     2    1    2 1
     3    1   16 1
     4    1   17 1
     5    2    3 1
     6    2   18 1
     7    2   19 1
     8    3    4 1
     9    3   13 am
    10    4    5 1
    11    4   20 1
    12    4   21 1
    13    5    6 1
    14    5   22 1
    15    5   23 1
    16    6    7 1
    17    6   24 1
    18    7    8 1
    19    7   25 1
    20    7   32 1
    21    8    9 1
    22    8   26 1
    23    8   27 1
    24    9   10 1
    25    9   28 1
    26    9   29 1
    27   10   11 2
    28   10   12 1
    29   13   14 2
    30   13   15 am
    31   15   30 1
    32   15   31 1
@<TRIPOS>MOLECULE
ZINC40480878
   35    36     0     0     0
SMALL
USER_CHARGES

@<TRIPOS>ATOM
      1 C1         -0.0169    1.3947    0.0097 C.ar      1 <0>        -0.0549
      2 C2          1.1622    2.0989    0.0022 C.ar      1 <0>        -0.1704
      3 C3          2.3903    1.4278   -0.0131 C.ar      1 <0>         0.0977
      4 C4          2.4053    0.0383   -0.0207 C.ar      1 <0>        -0.1354
      5 C5          1.2290   -0.6761   -0.0138 C.ar      1 <0>        -0.0394
      6 C6          0.0021   -0.0041    0.0020 C.ar      1 <0>        -0.1328
      7 C7         -1.2595   -0.7631    0.0100 C.2       1 <0>         0.5188
      8 O1         -2.3297   -0.1707    0.0233 O.co2     1 <0>        -0.6831
      9 O2         -1.2374   -1.9863    0.0032 O.co2     1 <0>        -0.6800
     10 C8          3.8448   -0.4256   -0.0365 C.3       1 <0>        -0.0872
     11 C9          4.6677    0.8730   -0.0371 C.3       1 <0>         0.1108
     12 N1          3.6797    1.9546   -0.0222 N.am      1 <0>        -0.5310
     13 C10         3.9756    3.2695   -0.0178 C.2       1 <0>         0.5177
     14 O3          5.1333    3.6305   -0.0270 O.2       1 <0>        -0.5346
     15 C11         2.8678    4.2911   -0.0015 C.3       1 <0>         0.0907
     16 N2          3.4452    5.6375    0.0003 N.am      1 <0>        -0.6905
     17 C12         2.6382    6.7168    0.0140 C.2       1 <0>         0.4943
     18 O4          1.4339    6.5735    0.0248 O.2       1 <0>        -0.5249
     19 C13         3.2321    8.1018    0.0159 C.3       1 <0>        -0.0238
     20 N3          2.1523    9.0977    0.0317 N.4       1 <0>        -0.6202
     21 H1         -0.9597    1.9214    0.0261 H         1 <0>         0.1378
     22 H2          1.1415    3.1787    0.0079 H         1 <0>         0.1224
     23 H3          1.2531   -1.7558   -0.0198 H         1 <0>         0.1365
     24 H4          4.0645   -1.0148    0.8538 H         1 <0>         0.0936
     25 H5          4.0480   -1.0052   -0.9370 H         1 <0>         0.0936
     26 H6          5.2961    0.9228    0.8522 H         1 <0>         0.0850
     27 H7          5.2796    0.9324   -0.9371 H         1 <0>         0.0850
     28 H8          2.2439    4.1646   -0.8862 H         1 <0>         0.1214
     29 H9          2.2610    4.1548    0.8936 H         1 <0>         0.1214
     30 H10         4.4084    5.7522   -0.0083 H         1 <0>         0.4201
     31 H11         3.8561    8.2284    0.9006 H         1 <0>         0.1655
     32 H12         3.8390    8.2382   -0.8793 H         1 <0>         0.1656
     33 H13         2.5500   10.0250    0.0330 H         1 <0>         0.4441
     34 H14         1.5747    8.9806   -0.7872 H         1 <0>         0.4431
     35 H15         1.5906    8.9715    0.8603 H         1 <0>         0.4431
@<TRIPOS>BOND
     1    1    6 ar
     2    1    2 ar
     3    1   21 1
     4    2    3 ar
     5    2   22 1
     6    3   12 1
     7    3    4 ar
     8    4    5 ar
     9    4   10 1
    10    5    6 ar
    11    5   23 1
    12    6    7 1
    13    7    8 2
    14    7    9 1
    15   10   11 1
    16   10   24 1
    17   10   25 1
    18   11   12 1
    19   11   26 1
    20   11   27 1
    21   12   13 am
    22   13   14 2
    23   13   15 1
    24   15   16 1
    25   15   28 1
    26   15   29 1
    27   16   17 am
    28   16   30 1
    29   17   18 2
    30   17   19 1
    31   19   20 1
    32   19   31 1
    33   19   32 1
    34   20   33 1
    35   20   34 1
    36   20   35 1
@<TRIPOS>MOLECULE
ZINC48839635
   43    44     0     0     0
SMALL
USER_CHARGES

@<TRIPOS>ATOM
      1 C1         -1.5579   -2.0162    2.2674 C.3       1 <0>        -0.1182
      2 C2         -0.6438   -0.7899    2.2253 C.3       1 <0>        -0.1273
      3 C3         -0.1743   -0.5530    0.7885 C.3       1 <0>        -0.1370
      4 C4          0.5950   -1.7798    0.2945 C.3       1 <0>         0.1428
      5 H1          1.4598   -1.9490    0.9361 H         1 <0>         0.1004
      6 C5         -0.3190   -3.0060    0.3367 C.3       1 <0>         0.0215
      7 H2         -1.1838   -2.8368   -0.3049 H         1 <0>         0.1473
      8 C6         -0.7886   -3.2430    1.7735 C.3       1 <0>        -0.1381
      9 N1          0.4196   -4.1839   -0.1376 N.4       1 <0>        -0.6383
     10 N2          1.0446   -1.5529   -1.0812 N.pl3     1 <0>        -1.1337
     11 S1          2.5686   -0.9725   -1.3692 S.o2      1 <0>         2.7596
     12 O1          2.7109   -0.8875   -2.7805 O.2       1 <0>        -0.9032
     13 O2          2.7430    0.1512   -0.5169 O.2       1 <0>        -0.9856
     14 N3          3.6378   -2.1275   -0.8543 N.pl3     1 <0>        -0.9894
     15 C7          4.3799   -1.9538    0.4018 C.3       1 <0>         0.1118
     16 C8          5.8762   -2.1179    0.1172 C.3       1 <0>        -0.1321
     17 C9          6.1156   -3.4624   -0.5736 C.3       1 <0>        -0.1170
     18 C10         5.3641   -3.4940   -1.9064 C.3       1 <0>        -0.1153
     19 C11         3.8579   -3.3481   -1.6419 C.3       1 <0>         0.0823
     20 H3          3.4965   -4.2125   -1.0849 H         1 <0>         0.0519
     21 C12         3.1207   -3.2437   -2.9522 C.2       1 <0>         0.4721
     22 O3          3.6241   -2.6475   -3.8890 O.co2     1 <0>        -0.6058
     23 O4          2.0210   -3.7554   -3.0754 O.co2     1 <0>        -0.7158
     24 H4         -1.8924   -2.1850    3.2910 H         1 <0>         0.0844
     25 H5         -2.4226   -1.8470    1.6258 H         1 <0>         0.0760
     26 H6         -1.1919    0.0840    2.5772 H         1 <0>         0.0815
     27 H7          0.2209   -0.9591    2.8669 H         1 <0>         0.0719
     28 H8         -1.0391   -0.3838    0.1469 H         1 <0>         0.0808
     29 H9          0.4769    0.3206    0.7585 H         1 <0>         0.0982
     30 H10         0.0762   -3.4122    2.4151 H         1 <0>         0.0887
     31 H11        -1.4398   -4.1165    1.8035 H         1 <0>         0.0919
     32 H12         1.2201   -4.3405    0.4563 H         1 <0>         0.4266
     33 H13        -0.1832   -4.9926   -0.1098 H         1 <0>         0.4317
     34 H14         0.4496   -1.7427   -1.8234 H         1 <0>         0.4249
     35 H15         4.1913   -0.9581    0.8030 H         1 <0>         0.0926
     36 H16         4.0603   -2.7069    1.1221 H         1 <0>         0.0587
     37 H17         6.2138   -1.3101   -0.5321 H         1 <0>         0.0696
     38 H18         6.4305   -2.0871    1.0553 H         1 <0>         0.0719
     39 H19         7.1825   -3.5925   -0.7550 H         1 <0>         0.0636
     40 H20         5.7552   -4.2683    0.0657 H         1 <0>         0.0558
     41 H21         5.7065   -2.6732   -2.5366 H         1 <0>         0.0798
     42 H22         5.5539   -4.4426   -2.4087 H         1 <0>         0.0665
     43 H23         0.7293   -4.0276   -1.0851 H         1 <0>         0.4523
@<TRIPOS>BOND
     1    1    8 1
     2    1    2 1
     3    1   24 1
     4    1   25 1
     5    2    3 1
     6    2   26 1
     7    2   27 1
     8    3    4 1
     9    3   28 1
    10    3   29 1
    11    4    5 1
    12    4    6 1
    13    4   10 1
    14    6    7 1
    15    6    8 1
    16    6    9 1
    17    8   30 1
    18    8   31 1
    19    9   32 1
    20    9   33 1
    21    9   43 1
    22   10   11 1
    23   10   34 1
    24   11   12 2
    25   11   13 2
    26   11   14 1
    27   14   19 1
    28   14   15 1
    29   15   16 1
    30   15   35 1
    31   15   36 1
    32   16   17 1
    33   16   37 1
    34   16   38 1
    35   17   18 1
    36   17   39 1
    37   17   40 1
    38   18   19 1
    39   18   41 1
    40   18   42 1
    41   19   20 1
    42   19   21 1
    43   21   22 2
    44   21   23 1
@<TRIPOS>MOLECULE
ZINC50251365
   32    32     0     0     0
SMALL
USER_CHARGES

@<TRIPOS>ATOM
      1 C1         -0.0190    1.5473    0.0105 C.3       1 <0>        -0.1144
      2 C2          1.4802    1.9134   -0.0018 C.3       1 <0>         0.0936
      3 N1          2.2074    0.7570   -0.5453 N.am      1 <0>        -0.6434
      4 C3          1.2331   -0.2935   -0.8926 C.3       1 <0>         0.1186
      5 C4          0.0021   -0.0041    0.0020 C.3       1 <0>        -0.1424
      6 H1          0.1485   -0.3984    1.0076 H         1 <0>         0.1111
      7 C5         -1.2755   -0.5664   -0.6245 C.3       1 <0>         0.0059
      8 N2         -1.2747   -2.0308   -0.5076 N.4       1 <0>        -0.6393
      9 C6          3.5434    0.6717   -0.7009 C.2       1 <0>         0.7169
     10 O1          4.0384   -0.3380   -1.1633 O.2       1 <0>        -0.5822
     11 N3          4.3308    1.7057   -0.3440 N.am      1 <0>        -0.7334
     12 C7          5.7831    1.6129   -0.5131 C.3       1 <0>         0.1557
     13 C8          6.4362    2.9112   -0.0347 C.3       1 <0>        -0.1960
     14 C9          7.9301    2.8158   -0.2087 C.2       1 <0>         0.4949
     15 O2          8.4264    1.8033   -0.6724 O.co2     1 <0>        -0.6915
     16 O3          8.6424    3.7512    0.1142 O.co2     1 <0>        -0.6954
     17 H2         -0.4999    1.9215    0.9143 H         1 <0>         0.0962
     18 H3         -0.5170    1.9312   -0.8798 H         1 <0>         0.0888
     19 H4          1.6437    2.7852   -0.6353 H         1 <0>         0.0773
     20 H5          1.8194    2.1211    1.0130 H         1 <0>         0.0750
     21 H6          0.9611   -0.2253   -1.9459 H         1 <0>         0.0714
     22 H7          1.6417   -1.2789   -0.6685 H         1 <0>         0.0817
     23 H8         -2.1438   -0.1610   -0.1051 H         1 <0>         0.1399
     24 H9         -1.3180   -0.2860   -1.6769 H         1 <0>         0.1382
     25 H10        -0.4709   -2.4061   -0.9884 H         1 <0>         0.4373
     26 H11        -1.2353   -2.2904    0.4667 H         1 <0>         0.4362
     27 H12         3.9360    2.5112    0.0250 H         1 <0>         0.3922
     28 H13         6.1645    0.7769    0.0731 H         1 <0>         0.0705
     29 H14         6.0169    1.4551   -1.5660 H         1 <0>         0.0709
     30 H15         6.0548    3.7473   -0.6209 H         1 <0>         0.0639
     31 H16         6.2024    3.0690    1.0182 H         1 <0>         0.0635
     32 H17        -2.1172   -2.4016   -0.9207 H         1 <0>         0.4383
@<TRIPOS>BOND
     1    1    5 1
     2    1    2 1
     3    1   17 1
     4    1   18 1
     5    2    3 1
     6    2   19 1
     7    2   20 1
     8    3    4 1
     9    3    9 am
    10    4    5 1
    11    4   21 1
    12    4   22 1
    13    5    6 1
    14    5    7 1
    15    7    8 1
    16    7   23 1
    17    7   24 1
    18    8   25 1
    19    8   26 1
    20    8   32 1
    21    9   10 2
    22    9   11 am
    23   11   12 1
    24   11   27 1
    25   12   13 1
    26   12   28 1
    27   12   29 1
    28   13   14 1
    29   13   30 1
    30   13   31 1
    31   14   15 2
    32   14   16 1
@<TRIPOS>MOLECULE
ZINC62243294
   32    32     0     0     0
SMALL
USER_CHARGES

@<TRIPOS>ATOM
      1 C1         -0.0897    1.9409    0.1975 C.3       1 <0>        -0.1573
      2 C2          1.3571    2.4440    0.2043 C.3       1 <0>        -0.1036
      3 C3          2.1259    1.7392    1.3261 C.3       1 <0>        -0.1443
      4 H1          1.6878    2.0022    2.2889 H         1 <0>         0.1085
      5 C4          2.0383    0.2246    1.1208 C.3       1 <0>         0.0726
      6 O1          0.6659   -0.1725    1.0935 O.3       1 <0>        -0.3754
      7 C5         -0.0917    0.4186    0.0358 C.3       1 <0>         0.0556
      8 C6          3.5696    2.1703    1.2952 C.2       1 <0>         0.5208
      9 O2          3.9479    2.9630    0.4589 O.2       1 <0>        -0.5308
     10 N1          4.4402    1.6749    2.1968 N.am      1 <0>        -0.7309
     11 C7          5.8437    2.0939    2.1667 C.3       1 <0>         0.1292
     12 C8          6.6105    1.3893    3.2877 C.3       1 <0>        -0.1267
     13 C9          8.0750    1.7294    3.1852 C.2       1 <0>         0.3779
     14 N2          8.5987    2.5825    4.0019 N.2       1 <0>        -0.4270
     15 O3          7.8254    3.1142    5.0623 O.3       1 <0>        -0.4112
     16 N3          8.8552    1.1308    2.2210 N.pl3     1 <0>        -0.8322
     17 H2         -0.5726    2.2080    1.1375 H         1 <0>         0.0740
     18 H3         -0.6298    2.3961   -0.6327 H         1 <0>         0.0805
     19 H4          1.8251    2.2209   -0.7545 H         1 <0>         0.0734
     20 H5          1.3680    3.5204    0.3752 H         1 <0>         0.0762
     21 H6          2.5127   -0.0422    0.1764 H         1 <0>         0.0577
     22 H7          2.5475   -0.2833    1.9398 H         1 <0>         0.0973
     23 H8         -1.1169    0.0504    0.0732 H         1 <0>         0.0985
     24 H9          0.3548    0.1543   -0.9228 H         1 <0>         0.0537
     25 H10         4.1376    1.0408    2.8656 H         1 <0>         0.4027
     26 H11         6.2816    1.8286    1.2045 H         1 <0>         0.0722
     27 H12         5.9038    3.1731    2.3080 H         1 <0>         0.0729
     28 H13         6.2274    1.7196    4.2532 H         1 <0>         0.1042
     29 H14         6.4805    0.3111    3.1947 H         1 <0>         0.0904
     30 H15         8.3027    3.7440    5.6197 H         1 <0>         0.4014
     31 H16         8.4620    0.4902    1.6078 H         1 <0>         0.4127
     32 H17         9.7979    1.3497    2.1551 H         1 <0>         0.4070
@<TRIPOS>BOND
     1    1    7 1
     2    1    2 1
     3    1   17 1
     4    1   18 1
     5    2    3 1
     6    2   19 1
     7    2   20 1
     8    3    4 1
     9    3    5 1
    10    3    8 1
    11    5    6 1
    12    5   21 1
    13    5   22 1
    14    6    7 1
    15    7   23 1
    16    7   24 1
    17    8    9 2
    18    8   10 am
    19   10   11 1
    20   10   25 1
    21   11   12 1
    22   11   26 1
    23   11   27 1
    24   12   13 1
    25   12   28 1
    26   12   29 1
    27   13   14 2
    28   13   16 1
    29   14   15 1
    30   15   30 1
    31   16   31 1
    32   16   32 1
@<TRIPOS>MOLECULE
ZINC35326996
   34    35     0     0     0
SMALL
USER_CHARGES

@<TRIPOS>ATOM
      1 C1          0.6969    0.2836   -1.2366 C.ar      1 <0>        -0.1381
      2 C2          1.8922    0.9739   -1.2274 C.ar      1 <0>        -0.0729
      3 C3          2.4021    1.4664   -0.0411 C.ar      1 <0>        -0.1446
      4 C4          1.7146    1.2699    1.1512 C.ar      1 <0>         0.2222
      5 C5          0.5133    0.5779    1.1525 C.ar      1 <0>        -0.1299
      6 C6         -0.0011    0.0809   -0.0451 C.ar      1 <0>        -0.0921
      7 C7         -1.2819   -0.6579   -0.0523 C.2       1 <0>         0.5637
      8 O1         -1.8882   -0.8333    0.9865 O.2       1 <0>        -0.5382
      9 N1         -1.7771   -1.1367   -1.2107 N.am      1 <0>        -0.8496
     10 N2          2.2345    1.7694    2.3479 N.pl3     1 <0>        -0.8727
     11 C8          3.7080    2.2186   -0.0398 C.3       1 <0>         0.1383
     12 N3          4.3009    2.1698   -1.3786 N.am      1 <0>        -0.5647
     13 C9          5.0640    1.1167   -1.7073 C.2       1 <0>         0.5183
     14 O2          5.2515    0.2406   -0.8907 O.2       1 <0>        -0.4897
     15 C10         5.6918    1.0015   -3.0712 C.3       1 <0>        -0.1435
     16 C11         5.9502    2.4062   -3.6264 C.3       1 <0>        -0.1256
     17 C12         4.6294    3.1834   -3.6212 C.3       1 <0>        -0.1434
     18 C13         4.0550    3.1774   -2.2293 C.2       1 <0>         0.5184
     19 O3          3.3602    4.1032   -1.8691 O.2       1 <0>        -0.4923
     20 H1          0.2996   -0.0958   -2.1664 H         1 <0>         0.1244
     21 H2          2.4309    1.1294   -2.1505 H         1 <0>         0.1153
     22 H3         -0.0222    0.4238    2.0776 H         1 <0>         0.1386
     23 H4         -1.2933   -0.9967   -2.0397 H         1 <0>         0.4016
     24 H5         -2.6174   -1.6214   -1.2154 H         1 <0>         0.4061
     25 H6          3.0349    2.3172    2.3377 H         1 <0>         0.3992
     26 H7          1.7950    1.5683    3.1889 H         1 <0>         0.4038
     27 H8          3.5292    3.2566    0.2408 H         1 <0>         0.1082
     28 H9          4.3902    1.7609    0.6766 H         1 <0>         0.1034
     29 H10         6.6354    0.4614   -2.9934 H         1 <0>         0.1161
     30 H11         5.0176    0.4644   -3.7384 H         1 <0>         0.1127
     31 H12         6.6792    2.9193   -2.9992 H         1 <0>         0.0796
     32 H13         6.3278    2.3330   -4.6463 H         1 <0>         0.0985
     33 H14         4.8100    4.2105   -3.9385 H         1 <0>         0.1166
     34 H15         3.9248    2.7088   -4.3041 H         1 <0>         0.1125
@<TRIPOS>BOND
     1    1    6 ar
     2    1    2 ar
     3    1   20 1
     4    2    3 ar
     5    2   21 1
     6    3    4 ar
     7    3   11 1
     8    4    5 ar
     9    4   10 1
    10    5    6 ar
    11    5   22 1
    12    6    7 1
    13    7    8 2
    14    7    9 am
    15    9   23 1
    16    9   24 1
    17   10   25 1
    18   10   26 1
    19   11   12 1
    20   11   27 1
    21   11   28 1
    22   12   18 am
    23   12   13 am
    24   13   14 2
    25   13   15 1
    26   15   16 1
    27   15   29 1
    28   15   30 1
    29   16   17 1
    30   16   31 1
    31   16   32 1
    32   17   18 1
    33   17   33 1
    34   17   34 1
    35   18   19 2
@<TRIPOS>MOLECULE
ZINC44501940
   35    36     0     0     0
SMALL
USER_CHARGES

@<TRIPOS>ATOM
      1 C1         -0.0169    1.3917    0.0097 C.2       1 <0>        -0.3047
      2 C2          0.0021   -0.0041    0.0020 C.2       1 <0>         0.0097
      3 C3         -1.2097   -0.6969    0.0098 C.2       1 <0>        -0.3555
      4 C4         -2.4026    0.0134    0.0250 C.2       1 <0>         0.4799
      5 N1         -2.3961    1.3656    0.0322 N.am      1 <0>        -0.6004
      6 C5         -1.2347    2.0582    0.0307 C.2       1 <0>         0.4804
      7 O1         -1.2594    3.3968    0.0386 O.2       1 <0>        -0.6570
      8 O2         -3.5682   -0.6454    0.0321 O.3       1 <0>        -0.6723
      9 C6          1.2919   -0.7407   -0.0147 C.2       1 <0>         0.5689
     10 O3          2.3409   -0.1285   -0.0218 O.2       1 <0>        -0.5275
     11 N2          1.2982   -2.0884   -0.0220 N.am      1 <0>        -0.7334
     12 C7          2.5702   -2.8149   -0.0385 C.3       1 <0>         0.1281
     13 C8          2.2977   -4.3205   -0.0438 C.3       1 <0>        -0.1244
     14 H1          1.6613   -4.5782    0.8027 H         1 <0>         0.1038
     15 C9          1.5954   -4.7083   -1.3483 C.3       1 <0>        -0.1392
     16 C10         1.3977   -6.2266   -1.3781 C.3       1 <0>        -0.1468
     17 C11         2.7553   -6.9154   -1.2235 C.3       1 <0>        -0.0080
     18 N3          3.3635   -6.5247    0.0540 N.4       1 <0>        -0.5030
     19 C12         3.6219   -5.0799    0.0625 C.3       1 <0>        -0.0016
     20 H2          0.9084    1.9487    0.0039 H         1 <0>         0.1360
     21 H3         -1.2193   -1.7769    0.0038 H         1 <0>         0.1191
     22 H4         -3.2384    1.8466    0.0428 H         1 <0>         0.4039
     23 H5          0.4604   -2.5774   -0.0163 H         1 <0>         0.4064
     24 H6          3.1317   -2.5442   -0.9326 H         1 <0>         0.0769
     25 H7          3.1493   -2.5537    0.8472 H         1 <0>         0.0768
     26 H8          0.6256   -4.2134   -1.4012 H         1 <0>         0.0998
     27 H9          2.2082   -4.4038   -2.1967 H         1 <0>         0.0867
     28 H10         0.7430   -6.5246   -0.5592 H         1 <0>         0.0897
     29 H11         0.9486   -6.5166   -2.3280 H         1 <0>         0.1136
     30 H12         2.6182   -7.9966   -1.2445 H         1 <0>         0.1318
     31 H13         3.4091   -6.6169   -2.0430 H         1 <0>         0.1302
     32 H14         2.7359   -6.7570    0.8091 H         1 <0>         0.4282
     33 H15         4.2578   -4.8206   -0.7840 H         1 <0>         0.1348
     34 H16         4.1239   -4.8057    0.9903 H         1 <0>         0.1374
     35 H17         4.2331   -7.0215    0.1772 H         1 <0>         0.4315
@<TRIPOS>BOND
     1    1    2 2
     2    1   20 1
     3    1    6 1
     4    2    3 1
     5    2    9 1
     6    3    4 2
     7    3   21 1
     8    4    5 1
     9    4    8 1
    10    5   22 1
    11    5    6 am
    12    6    7 2
    13    9   10 2
    14    9   11 am
    15   11   12 1
    16   11   23 1
    17   12   13 1
    18   12   24 1
    19   12   25 1
    20   13   14 1
    21   13   19 1
    22   13   15 1
    23   15   16 1
    24   15   26 1
    25   15   27 1
    26   16   17 1
    27   16   28 1
    28   16   29 1
    29   17   18 1
    30   17   30 1
    31   17   31 1
    32   18   19 1
    33   18   32 1
    34   18   35 1
    35   19   33 1
    36   19   34 1
@<TRIPOS>MOLECULE
ZINC52833881
   26    26     0     0     0
SMALL
USER_CHARGES

@<TRIPOS>ATOM
      1 C1         -0.0188    1.5335    0.0105 C.3       1 <0>        -0.1246
      2 C2          1.4526    2.0379   -0.0009 C.3       1 <0>        -0.5747
      3 S1          2.2278    0.8424    1.1674 S.o2      1 <0>         2.3706
      4 O1          2.1984    1.3913    2.4777 O.2       1 <0>        -0.9333
      5 O2          3.4629    0.3986    0.6227 O.2       1 <0>        -0.9358
      6 C3          1.0012   -0.5241    1.0635 C.3       1 <0>        -0.5834
      7 C4          0.0021   -0.0041    0.0020 C.3       1 <0>        -0.1014
      8 H1          0.3055   -0.3564   -0.9838 H         1 <0>         0.1066
      9 C5         -1.3980   -0.5328    0.3202 C.3       1 <0>         0.1353
     10 N1         -1.4087   -1.9925    0.1956 N.pl3     1 <0>        -0.7204
     11 C6         -2.5705   -2.6970    0.4365 C.2       1 <0>         0.6057
     12 N2         -2.5800   -3.9931    0.3259 N.2       1 <0>        -0.4874
     13 O3         -3.7722   -4.7160    0.5731 O.3       1 <0>        -0.4238
     14 N3         -3.7223   -2.0266    0.7947 N.pl3     1 <0>        -0.8794
     15 H2         -0.5232    1.8899    0.9086 H         1 <0>         0.0940
     16 H3         -0.5402    1.8994   -0.8740 H         1 <0>         0.1059
     17 H4          1.8896    1.9563   -0.9961 H         1 <0>         0.1409
     18 H5          1.5223    3.0584    0.3755 H         1 <0>         0.1439
     19 H6          1.4768   -1.4457    0.7279 H         1 <0>         0.1448
     20 H7          0.5045   -0.6713    2.0225 H         1 <0>         0.1438
     21 H8         -1.6694   -0.2530    1.3381 H         1 <0>         0.0721
     22 H9         -2.1160   -0.1033   -0.3784 H         1 <0>         0.0737
     23 H10        -0.5991   -2.4637   -0.0561 H         1 <0>         0.4188
     24 H11        -3.6814   -5.6727    0.4660 H         1 <0>         0.3984
     25 H12        -3.7152   -1.0601    0.8771 H         1 <0>         0.3921
     26 H13        -4.5390   -2.5218    0.9640 H         1 <0>         0.4175
@<TRIPOS>BOND
     1    1    7 1
     2    1    2 1
     3    1   15 1
     4    1   16 1
     5    2    3 1
     6    2   17 1
     7    2   18 1
     8    3    4 2
     9    3    5 2
    10    3    6 1
    11    6    7 1
    12    6   19 1
    13    6   20 1
    14    7    8 1
    15    7    9 1
    16    9   10 1
    17    9   21 1
    18    9   22 1
    19   10   11 1
    20   10   23 1
    21   11   12 2
    22   11   14 1
    23   12   13 1
    24   13   24 1
    25   14   25 1
    26   14   26 1
@<TRIPOS>MOLECULE
ZINC61680421
   27    28     0     0     0
SMALL
USER_CHARGES

@<TRIPOS>ATOM
      1 C1         -0.1598    1.2498    1.1037 C.2       1 <0>        -0.2411
      2 C2         -1.4020    1.8837    1.1214 C.2       1 <0>         0.0729
      3 C3         -2.5015    1.2288    0.5703 C.2       1 <0>        -0.2825
      4 C4         -2.3188   -0.0619    0.0097 C.2       1 <0>         0.5335
      5 N1         -1.0973   -0.6285    0.0187 N.am      1 <0>        -0.5984
      6 C5         -0.0330    0.0140    0.5561 C.2       1 <0>         0.1691
      7 O1         -3.2647   -0.6559   -0.4783 O.2       1 <0>        -0.5464
      8 C6         -3.8280    1.8638    0.5702 C.2       1 <0>         0.5773
      9 O2         -3.9961    2.9216    1.1475 O.2       1 <0>        -0.5336
     10 N2         -4.8574    1.2741   -0.0693 N.am      1 <0>        -0.6523
     11 C7         -6.0914    1.9309   -0.1650 C.ar      1 <0>         0.0359
     12 C8         -7.2806    1.2029   -0.1586 C.ar      1 <0>        -0.0560
     13 C9         -8.4752    1.8921   -0.2552 C.ar      1 <0>        -0.2193
     14 C10        -8.4514    3.2795   -0.3548 C.ar      1 <0>         0.3863
     15 N3         -7.3034    3.9380   -0.3582 N.ar      1 <0>        -0.5272
     16 C11        -6.1452    3.3128   -0.2615 C.ar      1 <0>         0.1520
     17 N4         -9.6488    3.9831   -0.4526 N.pl3     1 <0>        -0.8540
     18 H1          0.7039    1.7448    1.5225 H         1 <0>         0.1594
     19 H2         -1.5100    2.8666    1.5558 H         1 <0>         0.1545
     20 H3          0.9354   -0.4638    0.5449 H         1 <0>         0.1758
     21 H4         -0.9778   -1.5109   -0.3658 H         1 <0>         0.4231
     22 H5         -4.7439    0.3950   -0.4633 H         1 <0>         0.4234
     23 H6         -7.2688    0.1258   -0.0804 H         1 <0>         0.1368
     24 H7         -9.4150    1.3601   -0.2536 H         1 <0>         0.1344
     25 H8         -5.2286    3.8839   -0.2622 H         1 <0>         0.1655
     26 H9        -10.4933    3.5059   -0.4509 H         1 <0>         0.4072
     27 H10        -9.6385    4.9506   -0.5223 H         1 <0>         0.4037
@<TRIPOS>BOND
     1    1    6 2
     2    1   18 1
     3    1    2 1
     4    2   19 1
     5    2    3 2
     6    3    4 1
     7    3    8 1
     8    4    7 2
     9    4    5 am
    10    5   21 1
    11    5    6 1
    12    6   20 1
    13    8    9 2
    14    8   10 am
    15   10   11 1
    16   10   22 1
    17   11   16 ar
    18   11   12 ar
    19   12   13 ar
    20   12   23 1
    21   13   14 ar
    22   13   24 1
    23   14   15 ar
    24   14   17 1
    25   15   16 ar
    26   16   25 1
    27   17   26 1
    28   17   27 1
@<TRIPOS>MOLECULE
ZINC34198910
   31    32     0     0     0
SMALL
USER_CHARGES

@<TRIPOS>ATOM
      1 C1         -0.0187    1.5258    0.0104 C.3       1 <0>        -0.1512
      2 C2          0.0021   -0.0041    0.0020 C.3       1 <0>         0.2570
      3 O1         -1.3416   -0.5086    0.1500 O.3       1 <0>        -0.3104
      4 C3         -1.1708   -1.6976    0.9447 C.3       1 <0>         0.0627
      5 H1         -0.7767   -2.5015    0.3231 H         1 <0>         0.0799
      6 C4         -2.4519   -2.1470    1.6063 C.3       1 <0>         0.1268
      7 H2         -2.2648   -3.0702    2.1548 H         1 <0>         0.0807
      8 C5         -2.9826   -1.0898    2.5741 C.3       1 <0>         0.0519
      9 H3         -3.8952   -1.4508    3.0483 H         1 <0>         0.0584
     10 C6         -1.9122   -0.8340    3.6410 C.3       1 <0>         0.0362
     11 H4         -1.6543   -1.7718    4.1330 H         1 <0>         0.0701
     12 C7         -0.6752   -0.2556    2.9592 C.3       1 <0>         0.1023
     13 H5          0.0772   -0.0283    3.7145 H         1 <0>         0.0671
     14 C8         -0.0971   -1.2484    1.9559 C.3       1 <0>         0.0650
     15 H6          0.3930   -2.0906    2.4443 H         1 <0>         0.1305
     16 O2          0.7954   -0.4830    1.1006 O.3       1 <0>        -0.3666
     17 O3         -1.0340    0.9473    2.2765 O.3       1 <0>        -0.5132
     18 O4         -2.4099    0.0937    4.6073 O.3       1 <0>        -0.5591
     19 O5         -3.2548    0.1200    1.8640 O.3       1 <0>        -0.5062
     20 O6         -3.4360   -2.3931    0.5999 O.3       1 <0>        -0.5414
     21 C9          0.5947   -0.5035   -1.3172 C.3       1 <0>        -0.1733
     22 H7          0.9788    1.9014    0.2386 H         1 <0>         0.0641
     23 H8         -0.3290    1.8903   -0.9688 H         1 <0>         0.0586
     24 H9         -0.7206    1.8755    0.7675 H         1 <0>         0.1024
     25 H10        -1.3925    1.6353    2.8538 H         1 <0>         0.3707
     26 H11        -3.2046   -0.2074    5.0688 H         1 <0>         0.3847
     27 H12        -3.5953    0.8343    2.4199 H         1 <0>         0.3678
     28 H13        -4.2894   -2.6864    0.9476 H         1 <0>         0.3792
     29 H14         1.6165   -0.1377   -1.4181 H         1 <0>         0.0717
     30 H15         0.5965   -1.5935   -1.3250 H         1 <0>         0.0581
     31 H16        -0.0068   -0.1352   -2.1482 H         1 <0>         0.0754
@<TRIPOS>BOND
     1    1    2 1
     2    1   22 1
     3    1   23 1
     4    1   24 1
     5    2   16 1
     6    2    3 1
     7    2   21 1
     8    3    4 1
     9    4    5 1
    10    4   14 1
    11    4    6 1
    12    6    7 1
    13    6    8 1
    14    6   20 1
    15    8    9 1
    16    8   10 1
    17    8   19 1
    18   10   11 1
    19   10   12 1
    20   10   18 1
    21   12   13 1
    22   12   14 1
    23   12   17 1
    24   14   15 1
    25   14   16 1
    26   17   25 1
    27   18   26 1
    28   19   27 1
    29   20   28 1
    30   21   29 1
    31   21   30 1
    32   21   31 1
@<TRIPOS>MOLECULE
ZINC01614028
   24    24     0     0     0
SMALL
USER_CHARGES
3-(4,5-dichloro-3,6-dioxo-2H-pyridazin-1-yl)propanehydrazide
@<TRIPOS>ATOM
      1 C1         -0.0127    1.0858    0.0080 C.3       1 <0>        -0.1585
      2 C2         -0.7288    1.5792    1.2668 C.3       1 <0>         0.1324
      3 N1         -0.0203    1.0939    2.4537 N.am      1 <0>        -0.3943
      4 C3         -0.2961   -0.1325    2.9356 C.2       1 <0>         0.5564
      5 O1         -1.1278   -0.8284    2.3866 O.2       1 <0>        -0.4748
      6 C4          0.4155   -0.6343    4.1291 C.2       1 <0>        -0.0569
      7 C5          1.3305    0.1567    4.7267 C.2       1 <0>        -0.0595
      8 C6          1.5958    1.4972    4.1653 C.2       1 <0>         0.5600
      9 O2          2.4164    2.2244    4.6900 O.2       1 <0>        -0.4800
     10 N2          0.9284    1.9134    3.0727 N.am      1 <0>        -0.4934
     11 H1          1.1080    2.7949    2.7099 H         1 <0>         0.4410
     12 Cl1         2.1835   -0.3926    6.1354 Cl        1 <0>         0.0253
     13 Cl2         0.0748   -2.2165    4.7570 Cl        1 <0>         0.0262
     14 C7         -0.7416    1.5850   -1.2129 C.2       1 <0>         0.5220
     15 O3         -1.7359    2.2682   -1.0884 O.2       1 <0>        -0.5246
     16 N3         -0.2884    1.2723   -2.4431 N.am      1 <0>        -0.5762
     17 N4         -0.9491    1.7248   -3.5497 N.3       1 <0>        -0.6034
     18 H2          0.0021   -0.0041    0.0020 H         1 <0>         0.1106
     19 H3          1.0099    1.4631    0.0003 H         1 <0>         0.1024
     20 H4         -0.7436    2.6691    1.2728 H         1 <0>         0.1092
     21 H5         -1.7514    1.2020    1.2746 H         1 <0>         0.1239
     22 H6          0.5068    0.7259   -2.5426 H         1 <0>         0.4030
     23 H7         -1.0328    2.7302   -3.5350 H         1 <0>         0.3488
     24 H8         -0.4953    1.4121   -4.3949 H         1 <0>         0.3606
@<TRIPOS>BOND
     1    1    2 1
     2    1   14 1
     3    1   18 1
     4    1   19 1
     5    2    3 1
     6    2   20 1
     7    2   21 1
     8    3   10 1
     9    3    4 am
    10    4    5 2
    11    4    6 1
    12    6    7 2
    13    6   13 1
    14    7    8 1
    15    7   12 1
    16    8    9 2
    17    8   10 am
    18   10   11 1
    19   14   15 2
    20   14   16 am
    21   16   17 1
    22   16   22 1
    23   17   23 1
    24   17   24 1
@<TRIPOS>MOLECULE
ZINC38523994
   25    25     0     0     0
SMALL
USER_CHARGES

@<TRIPOS>ATOM
      1 C1         -0.0187    1.5258    0.0104 C.3       1 <0>         0.0599
      2 C2          0.0021   -0.0041    0.0020 C.3       1 <0>         0.1114
      3 H1         -1.0175   -0.3808   -0.0798 H         1 <0>         0.0946
      4 C3          0.8250   -0.4964   -1.1902 C.3       1 <0>         0.1227
      5 H2          1.8448   -0.1166   -1.1279 H         1 <0>         0.1144
      6 C4          0.8298   -2.0451   -1.2375 C.3       1 <0>         0.0893
      7 H3         -0.1379   -2.4502   -0.9415 H         1 <0>         0.0848
      8 C5          1.1027   -2.2932   -2.7461 C.3       1 <0>         0.0484
      9 H4          0.6775   -3.2445   -3.0659 H         1 <0>         0.0855
     10 C6          0.3657   -1.1107   -3.4111 C.3       1 <0>         0.2219
     11 H5         -0.6137   -1.4357   -3.7619 H         1 <0>         0.0912
     12 O1          0.2136   -0.0833   -2.4226 O.3       1 <0>        -0.3836
     13 O2          1.1345   -0.6164   -4.5095 O.3       1 <0>        -0.5559
     14 O3          2.5036   -2.2457   -3.0241 O.3       1 <0>        -0.5272
     15 O4          1.8784   -2.5818   -0.4285 O.3       1 <0>        -0.5175
     16 N1          0.6043   -0.4911    1.2455 N.2       1 <0>        -0.3687
     17 N2          0.0933   -0.3029    2.2288 N.1       1 <0>         0.2992
     18 N3         -0.4068   -0.1187    3.1911 N.1       1 <0>        -0.1791
     19 O5          1.3220    2.0204    0.0003 O.3       1 <0>        -0.5549
     20 H6         -0.5459    1.8868   -0.8726 H         1 <0>         0.0763
     21 H7         -0.5289    1.8773    0.9072 H         1 <0>         0.0435
     22 H8          0.7265    0.1287   -4.9715 H         1 <0>         0.3913
     23 H9          2.7255   -2.3947   -3.9534 H         1 <0>         0.3867
     24 H10         1.9196   -3.5479   -0.4280 H         1 <0>         0.3808
     25 H11         1.3852    2.9853    0.0049 H         1 <0>         0.3850
@<TRIPOS>BOND
     1    1    2 1
     2    1   19 1
     3    1   20 1
     4    1   21 1
     5    2    3 1
     6    2    4 1
     7    2   16 1
     8    4    5 1
     9    4   12 1
    10    4    6 1
    11    6    7 1
    12    6    8 1
    13    6   15 1
    14    8    9 1
    15    8   10 1
    16    8   14 1
    17   10   11 1
    18   10   12 1
    19   10   13 1
    20   13   22 1
    21   14   23 1
    22   15   24 1
    23   16   17 2
    24   17   18 2
    25   19   25 1
@<TRIPOS>MOLECULE
ZINC50244469
   38    38     0     0     0
SMALL
USER_CHARGES

@<TRIPOS>ATOM
      1 C1         -0.0187    1.5258    0.0104 C.3       1 <0>        -0.1359
      2 C2          0.0021   -0.0041    0.0020 C.3       1 <0>        -0.0638
      3 C3          0.7421   -0.5109    1.2415 C.3       1 <0>        -0.1358
      4 C4         -1.4333   -0.5336    0.0129 C.3       1 <0>        -0.1350
      5 C5          0.7182   -0.4975   -1.2568 C.3       1 <0>         0.0994
      6 H1          0.1910   -0.1364   -2.1398 H         1 <0>         0.0812
      7 C6          2.1320    0.0241   -1.2675 C.2       1 <0>         0.4960
      8 O1          3.0254   -0.6256   -0.7515 O.co2     1 <0>        -0.6925
      9 O2          2.3824    1.0959   -1.7921 O.co2     1 <0>        -0.6852
     10 N1          0.7381   -1.9623   -1.2648 N.am      1 <0>        -0.6944
     11 C7          0.8378   -2.6285   -2.4322 C.2       1 <0>         0.7213
     12 O3          0.9113   -2.0138   -3.4786 O.2       1 <0>        -0.5760
     13 N2          0.8561   -3.9761   -2.4396 N.am      1 <0>        -0.6421
     14 C8          0.7686   -4.8408   -1.2538 C.3       1 <0>         0.0963
     15 C9          0.8550   -6.3014   -1.7443 C.3       1 <0>        -0.1411
     16 C10         1.5546   -6.1643   -3.1224 C.3       1 <0>         0.0020
     17 H2          2.6363   -6.0963   -3.0064 H         1 <0>         0.1619
     18 C11         0.9608   -4.8274   -3.6387 C.3       1 <0>         0.1168
     19 N3          1.1921   -7.2773   -4.0100 N.4       1 <0>        -0.6256
     20 H3          1.0039    1.9031    0.0027 H         1 <0>         0.0735
     21 H4         -0.5459    1.8868   -0.8726 H         1 <0>         0.0534
     22 H5         -0.5289    1.8773    0.9072 H         1 <0>         0.0492
     23 H6          0.2319   -0.1594    2.1383 H         1 <0>         0.0481
     24 H7          0.7568   -1.6008    1.2356 H         1 <0>         0.0407
     25 H8          1.7647   -0.1336    1.2338 H         1 <0>         0.0745
     26 H9         -1.9605   -0.1726   -0.8702 H         1 <0>         0.0520
     27 H10        -1.4185   -1.6235    0.0069 H         1 <0>         0.0442
     28 H11        -1.9435   -0.1821    0.9097 H         1 <0>         0.0536
     29 H12         0.6794   -2.4528   -0.4300 H         1 <0>         0.3889
     30 H13         1.5963   -4.6273   -0.5774 H         1 <0>         0.0855
     31 H14        -0.1810   -4.6764   -0.7444 H         1 <0>         0.0825
     32 H15         1.4584   -6.9018   -1.0635 H         1 <0>         0.1111
     33 H16        -0.1409   -6.7295   -1.8583 H         1 <0>         0.0979
     34 H17        -0.0246   -4.9908   -4.0751 H         1 <0>         0.0802
     35 H18         1.6296   -4.3728   -4.3695 H         1 <0>         0.1051
     36 H19         0.1933   -7.2816   -4.1533 H         1 <0>         0.4337
     37 H20         1.6587   -7.1653   -4.8976 H         1 <0>         0.4399
     38 H21         1.4752   -8.1494   -3.5888 H         1 <0>         0.4384
@<TRIPOS>BOND
     1    1    2 1
     2    1   20 1
     3    1   21 1
     4    1   22 1
     5    2    3 1
     6    2    4 1
     7    2    5 1
     8    3   23 1
     9    3   24 1
    10    3   25 1
    11    4   26 1
    12    4   27 1
    13    4   28 1
    14    5    6 1
    15    5    7 1
    16    5   10 1
    17    7    8 2
    18    7    9 1
    19   10   11 am
    20   10   29 1
    21   11   12 2
    22   11   13 am
    23   13   18 1
    24   13   14 1
    25   14   15 1
    26   14   30 1
    27   14   31 1
    28   15   16 1
    29   15   32 1
    30   15   33 1
    31   16   17 1
    32   16   18 1
    33   16   19 1
    34   18   34 1
    35   18   35 1
    36   19   36 1
    37   19   37 1
    38   19   38 1
@<TRIPOS>MOLECULE
ZINC48866017
   29    29     0     0     0
SMALL
USER_CHARGES

@<TRIPOS>ATOM
      1 C1         -0.0189    1.5449    0.0105 C.3       1 <0>        -0.1329
      2 C2          1.4966    1.8770   -0.0022 C.3       1 <0>        -0.1272
      3 C3          2.1046    0.7503    0.8595 C.3       1 <0>         0.1421
      4 H1          2.2497    1.1020    1.8809 H         1 <0>         0.0875
      5 N1          1.1532   -0.3705    0.8470 N.am      1 <0>        -0.6134
      6 C4          0.0021   -0.0041    0.0020 C.3       1 <0>         0.0994
      7 C5          1.3083   -1.5398    1.4991 C.2       1 <0>         0.5271
      8 O1          2.3011   -1.7340    2.1680 O.2       1 <0>        -0.4874
      9 C6          0.2480   -2.6058    1.3971 C.3       1 <0>        -0.0767
     10 C7          0.6605   -3.8042    2.2125 C.2       1 <0>         0.3449
     11 N2          1.7804   -3.7929    2.8563 N.2       1 <0>        -0.3523
     12 O2          2.1680   -4.9190    3.6224 O.3       1 <0>        -0.4419
     13 N3         -0.1565   -4.9113    2.2713 N.pl3     1 <0>        -0.8753
     14 C8          3.4437    0.3070    0.2669 C.3       1 <0>         0.0609
     15 O3          3.2664   -0.0323   -1.1099 O.3       1 <0>        -0.5688
     16 H2         -0.4945    1.9242    0.9150 H         1 <0>         0.0756
     17 H3         -0.5116    1.9338   -0.8806 H         1 <0>         0.0854
     18 H4          1.8908    1.8413   -1.0178 H         1 <0>         0.0899
     19 H5          1.6817    2.8512    0.4504 H         1 <0>         0.0800
     20 H6         -0.9211   -0.3983    0.4268 H         1 <0>         0.0747
     21 H7          0.1428   -0.3760   -1.0129 H         1 <0>         0.0735
     22 H8         -0.6967   -2.2161    1.7762 H         1 <0>         0.1182
     23 H9          0.1275   -2.8998    0.3544 H         1 <0>         0.1189
     24 H10         3.0203   -4.8173    4.0676 H         1 <0>         0.4004
     25 H11        -0.9974   -4.9198    1.7878 H         1 <0>         0.3943
     26 H12         0.1090   -5.6827    2.7961 H         1 <0>         0.4083
     27 H13         4.1650    1.1199    0.3507 H         1 <0>         0.0529
     28 H14         3.8117   -0.5628    0.8110 H         1 <0>         0.0628
     29 H15         4.0764   -0.3230   -1.5508 H         1 <0>         0.3790
@<TRIPOS>BOND
     1    1    6 1
     2    1    2 1
     3    1   16 1
     4    1   17 1
     5    2    3 1
     6    2   18 1
     7    2   19 1
     8    3    4 1
     9    3    5 1
    10    3   14 1
    11    5    6 1
    12    5    7 am
    13    6   20 1
    14    6   21 1
    15    7    8 2
    16    7    9 1
    17    9   10 1
    18    9   22 1
    19    9   23 1
    20   10   11 2
    21   10   13 1
    22   11   12 1
    23   12   24 1
    24   13   25 1
    25   13   26 1
    26   14   15 1
    27   14   27 1
    28   14   28 1
    29   15   29 1
@<TRIPOS>MOLECULE
ZINC62935474
   34    34     0     0     0
SMALL
USER_CHARGES

@<TRIPOS>ATOM
      1 C1         -0.0187    1.5258    0.0104 C.3       1 <0>        -0.1769
      2 C2          0.0021   -0.0041    0.0020 C.3       1 <0>         0.0112
      3 H1         -1.0205   -0.3814    0.0098 H         1 <0>         0.1660
      4 C3          0.7074   -0.4901   -1.2379 C.2       1 <0>         0.5144
      5 O1          1.7035   -1.1742   -1.1398 O.2       1 <0>        -0.4419
      6 N1          0.2309   -0.1642   -2.4557 N.am      1 <0>        -0.6780
      7 C4          0.8618   -0.5989   -3.5646 C.2       1 <0>         0.6970
      8 O2          1.8604   -1.2847   -3.4663 O.2       1 <0>        -0.5200
      9 N2          0.3853   -0.2730   -4.7825 N.am      1 <0>        -0.8491
     10 N3          0.7126   -0.4907    1.1921 N.4       1 <0>        -0.3846
     11 C5         -0.0328   -0.1306    2.4257 C.3       1 <0>         0.0015
     12 C6          0.4679   -1.1316    3.4890 C.3       1 <0>        -0.1328
     13 C7          0.9801   -2.3456    2.6868 C.3       1 <0>        -0.1489
     14 C8          0.7459   -1.9759    1.2063 C.3       1 <0>         0.0170
     15 C9          2.4712   -2.5656    2.9500 C.3       1 <0>        -0.1294
     16 C10         0.1958   -3.5806    3.0482 C.2       1 <0>         0.5042
     17 O3         -0.6812   -3.5202    3.8931 O.co2     1 <0>        -0.6706
     18 O4          0.4382   -4.6401    2.4959 O.co2     1 <0>        -0.6688
     19 H2          1.0039    1.9031    0.0027 H         1 <0>         0.0876
     20 H3         -0.5459    1.8868   -0.8726 H         1 <0>         0.1048
     21 H4         -0.5289    1.8773    0.9072 H         1 <0>         0.1007
     22 H5         -0.5660    0.3831   -2.5342 H         1 <0>         0.4161
     23 H6         -0.4117    0.2744   -4.8609 H         1 <0>         0.4029
     24 H7          0.8393   -0.5858   -5.5805 H         1 <0>         0.4271
     25 H8          0.2001    0.8911    2.7260 H         1 <0>         0.1276
     26 H9         -1.1053   -0.2467    2.2694 H         1 <0>         0.1301
     27 H10         1.2786   -0.6926    4.0703 H         1 <0>         0.0859
     28 H11        -0.3509   -1.4290    4.1442 H         1 <0>         0.1319
     29 H12        -0.2047   -2.3808    0.8592 H         1 <0>         0.1227
     30 H13         1.5651   -2.3436    0.5884 H         1 <0>         0.1441
     31 H14         2.6262   -2.7748    4.0085 H         1 <0>         0.0676
     32 H15         2.8241   -3.4096    2.3574 H         1 <0>         0.0729
     33 H16         3.0254   -1.6693    2.6718 H         1 <0>         0.0429
     34 H17         1.6491   -0.1164    1.2216 H         1 <0>         0.4247
@<TRIPOS>BOND
     1    1    2 1
     2    1   19 1
     3    1   20 1
     4    1   21 1
     5    2    3 1
     6    2    4 1
     7    2   10 1
     8    4    5 2
     9    4    6 am
    10    6    7 am
    11    6   22 1
    12    7    8 2
    13    7    9 am
    14    9   23 1
    15    9   24 1
    16   10   14 1
    17   10   11 1
    18   10   34 1
    19   11   12 1
    20   11   25 1
    21   11   26 1
    22   12   13 1
    23   12   27 1
    24   12   28 1
    25   13   14 1
    26   13   15 1
    27   13   16 1
    28   14   29 1
    29   14   30 1
    30   15   31 1
    31   15   32 1
    32   15   33 1
    33   16   17 2
    34   16   18 1
@<TRIPOS>MOLECULE
ZINC35179758
   29    29     0     0     0
SMALL
USER_CHARGES

@<TRIPOS>ATOM
      1 C1         -0.0187    1.5258    0.0104 C.3       1 <0>        -0.1658
      2 C2          0.0021   -0.0041    0.0020 C.3       1 <0>         0.1356
      3 C3          0.7421   -0.5109    1.2415 C.3       1 <0>        -0.1624
      4 N1         -1.3723   -0.5112    0.0124 N.am      1 <0>        -0.7203
      5 C4         -2.0508   -0.6427   -1.1446 C.2       1 <0>         0.5090
      6 O1         -1.5236   -0.3413   -2.1944 O.2       1 <0>        -0.5306
      7 C5         -3.4646   -1.1643   -1.1339 C.3       1 <0>         0.1089
      8 N2         -3.9776   -1.2130   -2.5053 N.pl3     1 <0>        -0.6697
      9 C6         -5.2744   -1.6656   -2.7494 C.2       1 <0>         0.3291
     10 C7         -5.7997   -1.7252   -4.1234 C.2       1 <0>         0.5341
     11 O2         -5.1084   -1.3801   -5.0635 O.2       1 <0>        -0.4727
     12 N3         -7.0580   -2.1680   -4.3260 N.am      1 <0>        -0.6501
     13 H1         -7.4169   -2.2126   -5.2261 H         1 <0>         0.4392
     14 C8         -7.8154   -2.5486   -3.2805 C.2       1 <0>         0.6772
     15 O3         -8.9480   -2.9463   -3.4763 O.2       1 <0>        -0.5404
     16 N4         -7.3414   -2.4969   -2.0233 N.am      1 <0>        -0.5269
     17 H2         -7.9074   -2.7776   -1.2873 H         1 <0>         0.4566
     18 N5         -6.0412   -2.0488   -1.7617 N.2       1 <0>        -0.2799
     19 H3          1.0039    1.9031    0.0027 H         1 <0>         0.0684
     20 H4         -0.5459    1.8868   -0.8726 H         1 <0>         0.0610
     21 H5         -0.5289    1.8773    0.9072 H         1 <0>         0.0583
     22 H6          0.5123   -0.3556   -0.8948 H         1 <0>         0.0907
     23 H7          0.2319   -0.1594    2.1383 H         1 <0>         0.0628
     24 H8          0.7568   -1.6008    1.2356 H         1 <0>         0.0632
     25 H9          1.7647   -0.1336    1.2338 H         1 <0>         0.0755
     26 H10        -1.7940   -0.7522    0.8520 H         1 <0>         0.4042
     27 H11        -3.4790   -2.1662   -0.7048 H         1 <0>         0.1054
     28 H12        -4.0912   -0.5035   -0.5349 H         1 <0>         0.1054
     29 H13        -3.4155   -0.9306   -3.2437 H         1 <0>         0.4341
@<TRIPOS>BOND
     1    1    2 1
     2    1   19 1
     3    1   20 1
     4    1   21 1
     5    2    3 1
     6    2    4 1
     7    2   22 1
     8    3   23 1
     9    3   24 1
    10    3   25 1
    11    4    5 am
    12    4   26 1
    13    5    6 2
    14    5    7 1
    15    7    8 1
    16    7   27 1
    17    7   28 1
    18    8    9 1
    19    8   29 1
    20    9   18 2
    21    9   10 1
    22   10   11 2
    23   10   12 am
    24   12   13 1
    25   12   14 am
    26   14   15 2
    27   14   16 am
    28   16   17 1
    29   16   18 1
@<TRIPOS>MOLECULE
ZINC42872155
   30    30     0     0     0
SMALL
USER_CHARGES

@<TRIPOS>ATOM
      1 C1         -0.0178    1.4608    0.0101 C.3       1 <0>         0.0867
      2 N1          0.0021   -0.0041    0.0020 N.pl3     1 <0>        -0.6817
      3 C2          0.5851   -0.6645   -1.0180 C.2       1 <0>         0.5585
      4 S1          1.3024    0.2084   -2.3042 S.2       1 <0>        -0.5808
      5 N2          0.6034   -2.0121   -1.0254 N.pl3     1 <0>        -0.4837
      6 N3          0.0163   -2.7264    0.0272 N.am      1 <0>        -0.5532
      7 C3          0.0346   -4.0741    0.0198 C.2       1 <0>         0.7200
      8 O1         -0.4749   -4.6940    0.9333 O.2       1 <0>        -0.5533
      9 N4          0.6176   -4.7345   -1.0002 N.am      1 <0>        -0.7262
     10 C4          0.6375   -6.1993   -1.0083 C.3       1 <0>         0.1586
     11 H1         -0.2776   -6.5823   -0.5566 H         1 <0>         0.1206
     12 C5          1.8570   -6.7065   -0.2208 C.3       1 <0>        -0.1432
     13 C6          2.0675   -8.2163   -0.4889 C.3       1 <0>        -0.5734
     14 S2          1.3656   -8.4288   -2.1755 S.o2      1 <0>         2.3819
     15 O2          0.2525   -9.3093   -2.1054 O.2       1 <0>        -0.9254
     16 O3          2.4219   -8.7081   -3.0840 O.2       1 <0>        -0.9273
     17 C7          0.7572   -6.7151   -2.4708 C.3       1 <0>        -0.6006
     18 H2          1.0048    1.8381    0.0023 H         1 <0>         0.0855
     19 H3         -0.5450    1.8219   -0.8730 H         1 <0>         0.0855
     20 H4         -0.5280    1.8123    0.9069 H         1 <0>         0.0869
     21 H5         -0.4044   -0.4986    0.7308 H         1 <0>         0.3958
     22 H6          1.0230   -2.4874   -1.7595 H         1 <0>         0.4467
     23 H7         -0.4033   -2.2511    0.7613 H         1 <0>         0.4340
     24 H8          1.0240   -4.2399   -1.7290 H         1 <0>         0.4004
     25 H9          2.7443   -6.1562   -0.5339 H         1 <0>         0.0920
     26 H10         1.6912   -6.5479    0.8447 H         1 <0>         0.1046
     27 H11         3.1283   -8.4666   -0.4773 H         1 <0>         0.1472
     28 H12         1.5195   -8.8177    0.2364 H         1 <0>         0.1448
     29 H13        -0.2132   -6.7216   -2.9672 H         1 <0>         0.1515
     30 H14         1.4831   -6.1310   -3.0366 H         1 <0>         0.1478
@<TRIPOS>BOND
     1    1    2 1
     2    1   18 1
     3    1   19 1
     4    1   20 1
     5    2    3 1
     6    2   21 1
     7    3    4 2
     8    3    5 1
     9    5    6 1
    10    5   22 1
    11    6    7 am
    12    6   23 1
    13    7    8 2
    14    7    9 am
    15    9   10 1
    16    9   24 1
    17   10   11 1
    18   10   17 1
    19   10   12 1
    20   12   13 1
    21   12   25 1
    22   12   26 1
    23   13   14 1
    24   13   27 1
    25   13   28 1
    26   14   15 2
    27   14   16 2
    28   14   17 1
    29   17   29 1
    30   17   30 1
@<TRIPOS>MOLECULE
ZINC49356457
   38    39     0     0     0
SMALL
USER_CHARGES

@<TRIPOS>ATOM
      1 C1         -0.0187    1.5262    0.0104 C.3       1 <0>        -0.1511
      2 C2          1.4200    2.0524   -0.0005 C.3       1 <0>         0.1169
      3 N1          2.1298    1.4649   -1.1449 N.am      1 <0>        -0.6077
      4 C3          2.1347    0.0037   -1.2986 C.3       1 <0>         0.1073
      5 C4          0.6880   -0.4996   -1.2731 C.3       1 <0>        -0.1529
      6 C5          0.0021   -0.0041    0.0020 C.3       1 <0>         0.1872
      7 N2         -1.3717   -0.5111    0.0458 N.am      1 <0>        -0.6327
      8 C6         -1.9302   -1.3686    1.1018 C.3       1 <0>         0.0911
      9 C7         -3.3879   -1.5990    0.6580 C.3       1 <0>         0.0915
     10 N3         -3.4959   -0.8467   -0.6009 N.am      1 <0>        -0.7441
     11 C8         -2.3202   -0.2624   -0.8667 C.2       1 <0>         0.6991
     12 O1         -2.1301    0.4280   -1.8493 O.2       1 <0>        -0.5803
     13 C9          2.7640    2.2513   -2.0369 C.2       1 <0>         0.5151
     14 O2          2.7523    3.4562   -1.8991 O.2       1 <0>        -0.5361
     15 C10         3.4877    1.6335   -3.2055 C.3       1 <0>         0.1199
     16 N4          4.0897    2.6909   -4.0214 N.am      1 <0>        -0.7357
     17 C11         4.7916    2.3719   -5.1269 C.2       1 <0>         0.7097
     18 O3          4.9251    1.2066   -5.4471 O.2       1 <0>        -0.5954
     19 N5          5.3455    3.3447   -5.8775 N.am      1 <0>        -0.8642
     20 H1         -0.5280    1.8782    0.9075 H         1 <0>         0.0784
     21 H2         -0.5450    1.8877   -0.8729 H         1 <0>         0.0881
     22 H3          1.4111    3.1384   -0.0944 H         1 <0>         0.0990
     23 H4          1.9202    1.7677    0.9251 H         1 <0>         0.0729
     24 H5          2.5974   -0.2622   -2.2490 H         1 <0>         0.0940
     25 H6          2.6932   -0.4481   -0.4789 H         1 <0>         0.0789
     26 H7          0.1550   -0.1190   -2.1444 H         1 <0>         0.0894
     27 H8          0.6816   -1.5895   -1.2897 H         1 <0>         0.0811
     28 H9          0.5499   -0.3646    0.8726 H         1 <0>         0.0935
     29 H10        -1.3913   -2.3148    1.1512 H         1 <0>         0.0831
     30 H11        -1.8994   -0.8589    2.0648 H         1 <0>         0.0824
     31 H12        -3.5727   -2.6595    0.4871 H         1 <0>         0.0835
     32 H13        -4.0809   -1.2036    1.4006 H         1 <0>         0.0830
     33 H14        -4.2931   -0.7807   -1.1496 H         1 <0>         0.4300
     34 H15         4.2693    0.9684   -2.8384 H         1 <0>         0.0997
     35 H16         2.7816    1.0651   -3.8108 H         1 <0>         0.1000
     36 H17         3.9832    3.6206   -3.7660 H         1 <0>         0.4087
     37 H18         5.2390    4.2744   -5.6221 H         1 <0>         0.3992
     38 H19         5.8506    3.1151   -6.6732 H         1 <0>         0.4174
@<TRIPOS>BOND
     1    1    6 1
     2    1    2 1
     3    1   20 1
     4    1   21 1
     5    2    3 1
     6    2   22 1
     7    2   23 1
     8    3    4 1
     9    3   13 am
    10    4    5 1
    11    4   24 1
    12    4   25 1
    13    5    6 1
    14    5   26 1
    15    5   27 1
    16    6    7 1
    17    6   28 1
    18    7   11 am
    19    7    8 1
    20    8    9 1
    21    8   29 1
    22    8   30 1
    23    9   10 1
    24    9   31 1
    25    9   32 1
    26   10   11 am
    27   10   33 1
    28   11   12 2
    29   13   14 2
    30   13   15 1
    31   15   16 1
    32   15   34 1
    33   15   35 1
    34   16   17 am
    35   16   36 1
    36   17   18 2
    37   17   19 am
    38   19   37 1
    39   19   38 1
@<TRIPOS>MOLECULE
ZINC00054797
   34    34     0     0     0
SMALL
USER_CHARGES

@<TRIPOS>ATOM
      1 C1         -0.0184    1.5028    0.0103 C.3       1 <0>        -0.1641
      2 C2          0.0021   -0.0041    0.0020 C.2       1 <0>         0.5133
      3 O1          1.0605   -0.5961   -0.0113 O.2       1 <0>        -0.5426
      4 N1         -1.1558   -0.6938    0.0094 N.am      1 <0>        -0.5237
      5 N2         -1.1368   -2.0946    0.0017 N.am      1 <0>        -0.5193
      6 C3         -2.2947   -2.7843    0.0090 C.2       1 <0>         0.5597
      7 O2         -3.3553   -2.1911    0.0223 O.2       1 <0>        -0.5279
      8 C4         -2.2746   -4.2645    0.0009 C.ar      1 <0>        -0.0993
      9 C5         -1.0567   -4.9458   -0.0087 C.ar      1 <0>        -0.0908
     10 C6         -1.0380   -6.3238   -0.0162 C.ar      1 <0>        -0.0578
     11 C7         -2.2370   -7.0379   -0.0139 C.ar      1 <0>        -0.0993
     12 C8         -3.4549   -6.3567   -0.0035 C.ar      1 <0>        -0.0907
     13 C9         -3.4736   -4.9786    0.0085 C.ar      1 <0>        -0.0578
     14 C10        -2.2169   -8.5181   -0.0230 C.2       1 <0>         0.5597
     15 O3         -1.1564   -9.1114   -0.0325 O.2       1 <0>        -0.5278
     16 N3         -3.3749   -9.2078   -0.0208 N.am      1 <0>        -0.5196
     17 N4         -3.3559  -10.6086   -0.0294 N.am      1 <0>        -0.5230
     18 C11        -4.5138  -11.2983   -0.0272 C.2       1 <0>         0.5132
     19 O4         -5.5722  -10.7063   -0.0177 O.2       1 <0>        -0.5432
     20 C12        -4.4934  -12.8051   -0.0365 C.3       1 <0>        -0.1622
     21 H1          1.0042    1.8801    0.0026 H         1 <0>         0.1042
     22 H2         -0.5455    1.8639   -0.8728 H         1 <0>         0.0964
     23 H3         -0.5286    1.8543    0.9071 H         1 <0>         0.0964
     24 H4         -2.0023   -0.2203    0.0200 H         1 <0>         0.4346
     25 H5         -0.2903   -2.5681   -0.0090 H         1 <0>         0.4327
     26 H6         -0.1288   -4.3931   -0.0104 H         1 <0>         0.1382
     27 H7         -0.0955   -6.8510   -0.0243 H         1 <0>         0.1501
     28 H8         -4.3828   -6.9093   -0.0021 H         1 <0>         0.1382
     29 H9         -4.4161   -4.4514    0.0203 H         1 <0>         0.1501
     30 H10        -4.2214   -8.7343   -0.0132 H         1 <0>         0.4327
     31 H11        -2.5093  -11.0822   -0.0370 H         1 <0>         0.4344
     32 H12        -4.4827  -13.1747    0.9889 H         1 <0>         0.1031
     33 H13        -5.3812  -13.1774   -0.5477 H         1 <0>         0.1048
     34 H14        -3.6014  -13.1532   -0.5574 H         1 <0>         0.0874
@<TRIPOS>BOND
     1    1    2 1
     2    1   21 1
     3    1   22 1
     4    1   23 1
     5    2    3 2
     6    2    4 am
     7    4    5 1
     8    4   24 1
     9    5    6 am
    10    5   25 1
    11    6    7 2
    12    6    8 1
    13    8   13 ar
    14    8    9 ar
    15    9   10 ar
    16    9   26 1
    17   10   11 ar
    18   10   27 1
    19   11   12 ar
    20   11   14 1
    21   12   13 ar
    22   12   28 1
    23   13   29 1
    24   14   15 2
    25   14   16 am
    26   16   17 1
    27   16   30 1
    28   17   18 am
    29   17   31 1
    30   18   19 2
    31   18   20 1
    32   20   32 1
    33   20   33 1
    34   20   34 1
@<TRIPOS>MOLECULE
ZINC62870479
   37    37     0     0     0
SMALL
USER_CHARGES

@<TRIPOS>ATOM
      1 C1         -0.0187    1.5258    0.0104 C.3       1 <0>        -0.1145
      2 C2          0.0021   -0.0041    0.0020 C.3       1 <0>        -0.1434
      3 C3         -1.4334   -0.5345    0.0169 C.3       1 <0>        -0.0895
      4 C4         -2.1587   -0.0133    1.2597 C.3       1 <0>        -0.1399
      5 C5         -1.4424   -0.5215    2.5148 C.3       1 <0>         0.1022
      6 N1         -0.0258   -0.1394    2.4383 N.am      1 <0>        -0.5890
      7 C6          0.7429   -0.5122    1.2429 C.3       1 <0>         0.1373
      8 C7          0.5574    0.5406    3.4452 C.2       1 <0>         0.5009
      9 O1          1.7276    0.8502    3.3700 O.2       1 <0>        -0.5431
     10 C8         -0.2445    0.9162    4.6646 C.3       1 <0>         0.0954
     11 N2          0.6101    1.6438    5.6061 N.am      1 <0>        -0.6842
     12 C9          0.1037    2.0821    6.7757 C.2       1 <0>         0.4953
     13 O2         -1.0595    1.8741    7.0487 O.2       1 <0>        -0.5362
     14 C10         0.9828    2.8306    7.7441 C.3       1 <0>        -0.0253
     15 N3          0.2011    3.1967    8.9327 N.4       1 <0>        -0.6197
     16 C11         0.7059   -0.4907   -1.2385 C.2       1 <0>         0.5031
     17 O3          1.8671   -0.1796   -1.4423 O.co2     1 <0>        -0.6905
     18 O4          0.1143   -1.1956   -2.0382 O.co2     1 <0>        -0.6874
     19 H1          1.0039    1.9031    0.0027 H         1 <0>         0.0550
     20 H2         -0.5459    1.8868   -0.8726 H         1 <0>         0.0477
     21 H3         -0.5289    1.8773    0.9072 H         1 <0>         0.0352
     22 H4         -1.9555   -0.1945   -0.8775 H         1 <0>         0.0684
     23 H5         -1.4177   -1.6242    0.0359 H         1 <0>         0.0633
     24 H6         -2.1531    1.0767    1.2538 H         1 <0>         0.0665
     25 H7         -3.1879   -0.3723    1.2576 H         1 <0>         0.0729
     26 H8         -1.8943   -0.0739    3.4000 H         1 <0>         0.0757
     27 H9         -1.5256   -1.6070    2.5688 H         1 <0>         0.0768
     28 H10         0.8378   -1.5969    1.1931 H         1 <0>         0.0675
     29 H11         1.7329   -0.0584    1.2888 H         1 <0>         0.0987
     30 H12        -1.0807    1.5497    4.3686 H         1 <0>         0.1093
     31 H13        -0.6243    0.0129    5.1421 H         1 <0>         0.1088
     32 H14         1.5404    1.8101    5.3877 H         1 <0>         0.4226
     33 H15         1.8189    2.1970    8.0401 H         1 <0>         0.1660
     34 H16         1.3626    3.7338    7.2667 H         1 <0>         0.1661
     35 H17        -0.5729    3.7831    8.6587 H         1 <0>         0.4421
     36 H18        -0.1505    2.3605    9.3747 H         1 <0>         0.4419
     37 H19         0.7897    3.6978    9.5812 H         1 <0>         0.4441
@<TRIPOS>BOND
     1    1    2 1
     2    1   19 1
     3    1   20 1
     4    1   21 1
     5    2    7 1
     6    2    3 1
     7    2   16 1
     8    3    4 1
     9    3   22 1
    10    3   23 1
    11    4    5 1
    12    4   24 1
    13    4   25 1
    14    5    6 1
    15    5   26 1
    16    5   27 1
    17    6    7 1
    18    6    8 am
    19    7   28 1
    20    7   29 1
    21    8    9 2
    22    8   10 1
    23   10   11 1
    24   10   30 1
    25   10   31 1
    26   11   12 am
    27   11   32 1
    28   12   13 2
    29   12   14 1
    30   14   15 1
    31   14   33 1
    32   14   34 1
    33   15   35 1
    34   15   36 1
    35   15   37 1
    36   16   17 2
    37   16   18 1
@<TRIPOS>MOLECULE
ZINC12672590
   33    34     0     0     0
SMALL
USER_CHARGES
3-[2-(2,4-dioxopyrimidin-1-yl)acetyl]aminobenzamide
@<TRIPOS>ATOM
      1 C1          1.0327    2.0133   -0.7636 C.ar      1 <0>        -0.1057
      2 C2          1.1604    3.1693   -0.0204 C.ar      1 <0>        -0.0973
      3 C3          0.0898    3.6251    0.7505 C.ar      1 <0>        -0.1196
      4 C4         -1.1070    2.9087    0.7663 C.ar      1 <0>        -0.0818
      5 C5         -1.2272    1.7524    0.0116 C.ar      1 <0>         0.1377
      6 C6         -0.1533    1.3038   -0.7483 C.ar      1 <0>        -0.0922
      7 N1         -2.4279    1.0334    0.0192 N.am      1 <0>        -0.6673
      8 C7         -2.4097   -0.3098   -0.0899 C.2       1 <0>         0.4989
      9 O1         -1.3520   -0.9033   -0.0983 O.2       1 <0>        -0.5027
     10 C8         -3.7036   -1.0743   -0.2014 C.3       1 <0>         0.0941
     11 N2         -3.4167   -2.5070   -0.3077 N.am      1 <0>        -0.5214
     12 C9         -3.2447   -3.0741   -1.5410 C.2       1 <0>         0.1758
     13 C10        -2.9752   -4.3935   -1.6386 C.2       1 <0>        -0.2858
     14 C11        -2.8874   -5.1679   -0.4566 C.2       1 <0>         0.5499
     15 O2         -2.6500   -6.3606   -0.5196 O.2       1 <0>        -0.5118
     16 N3         -3.0688   -4.5724    0.7395 N.am      1 <0>        -0.6607
     17 H1         -3.0087   -5.1125    1.5790 H         1 <0>         0.4391
     18 C12        -3.3304   -3.2538    0.8080 C.2       1 <0>         0.7041
     19 O3         -3.4912   -2.7304    1.8936 O.2       1 <0>        -0.5366
     20 C13         0.2240    4.8629    1.5481 C.2       1 <0>         0.5644
     21 O4         -0.7096    5.2580    2.2187 O.2       1 <0>        -0.5374
     22 N4          1.3815    5.5530    1.5315 N.am      1 <0>        -0.8490
     23 H2          1.8622    1.6622   -1.3595 H         1 <0>         0.1361
     24 H3          2.0886    3.7213   -0.0356 H         1 <0>         0.1300
     25 H4         -1.9389    3.2567    1.3606 H         1 <0>         0.1423
     26 H5         -0.2475    0.4001   -1.3322 H         1 <0>         0.1393
     27 H6         -3.2732    1.5018    0.1030 H         1 <0>         0.4172
     28 H7         -4.3119   -0.8902    0.6841 H         1 <0>         0.1390
     29 H8         -4.2447   -0.7453   -1.0887 H         1 <0>         0.1371
     30 H9         -3.3197   -2.4683   -2.4320 H         1 <0>         0.1796
     31 H10        -2.8329   -4.8530   -2.6056 H         1 <0>         0.1749
     32 H11         2.1266    5.2377    0.9963 H         1 <0>         0.4020
     33 H12         1.4696    6.3651    2.0547 H         1 <0>         0.4077
@<TRIPOS>BOND
     1    1    6 ar
     2    1    2 ar
     3    1   23 1
     4    2    3 ar
     5    2   24 1
     6    3    4 ar
     7    3   20 1
     8    4    5 ar
     9    4   25 1
    10    5    6 ar
    11    5    7 1
    12    6   26 1
    13    7    8 am
    14    7   27 1
    15    8    9 2
    16    8   10 1
    17   10   11 1
    18   10   28 1
    19   10   29 1
    20   11   18 am
    21   11   12 1
    22   12   13 2
    23   12   30 1
    24   13   14 1
    25   13   31 1
    26   14   15 2
    27   14   16 am
    28   16   17 1
    29   16   18 am
    30   18   19 2
    31   20   21 2
    32   20   22 am
    33   22   32 1
    34   22   33 1
@<TRIPOS>MOLECULE
ZINC20023667
   33    34     0     0     0
SMALL
USER_CHARGES

@<TRIPOS>ATOM
      1 C1          3.4791   -6.7560   -0.8546 C.3       1 <0>        -0.0768
      2 C2          2.4373   -5.6985   -0.5948 C.2       1 <0>         0.1055
      3 C3          1.7477   -4.9721   -1.5698 C.2       1 <0>        -0.3139
      4 C4          0.8986   -4.1201   -0.9316 C.2       1 <0>         0.3344
      5 N1          1.0540   -4.3093    0.3985 N.pl3     1 <0>        -0.3823
      6 N2          2.0196   -5.3073    0.5818 N.2       1 <0>        -0.2889
      7 C5          0.3358   -3.5996    1.4599 C.3       1 <0>         0.0962
      8 N3          0.0293   -3.2177   -1.5380 N.pl3     1 <0>        -1.0349
      9 S1          0.1052   -2.9659   -3.1730 S.o2      1 <0>         2.7096
     10 O1          0.1151   -4.2500   -3.7816 O.2       1 <0>        -0.9334
     11 O2         -0.8767   -1.9854   -3.4790 O.2       1 <0>        -0.9428
     12 C6          1.6712   -2.2343   -3.5153 C.ar      1 <0>        -0.7960
     13 C7          1.8489   -0.8633   -3.3827 C.ar      1 <0>         0.0654
     14 C8          3.0938   -0.3292   -3.6612 C.ar      1 <0>        -0.2543
     15 C9          4.1201   -1.1786   -4.0625 C.ar      1 <0>         0.4556
     16 N4          3.9109   -2.4809   -4.1770 N.ar      1 <0>        -0.5327
     17 C10         2.7352   -3.0187   -3.9124 C.ar      1 <0>         0.2656
     18 N5          5.3762   -0.6551   -4.3460 N.pl3     1 <0>        -0.5577
     19 N6          6.3882   -1.4836   -4.7404 N.3       1 <0>        -0.5978
     20 H1          2.9957   -7.7293   -0.9388 H         1 <0>         0.0817
     21 H2          4.0034   -6.5292   -1.7829 H         1 <0>         0.0823
     22 H3          4.1917   -6.7743   -0.0299 H         1 <0>         0.0748
     23 H4          1.8671   -5.0693   -2.6387 H         1 <0>         0.1621
     24 H5         -0.5768   -4.1422    1.7067 H         1 <0>         0.0782
     25 H6          0.9688   -3.5320    2.3446 H         1 <0>         0.0964
     26 H7          0.0809   -2.5964    1.1181 H         1 <0>         0.0829
     27 H8         -0.6210   -2.7363   -1.0029 H         1 <0>         0.4270
     28 H9          1.0331   -0.2286   -3.0696 H         1 <0>         0.1498
     29 H10         3.2668    0.7329   -3.5688 H         1 <0>         0.1424
     30 H11         2.6026   -4.0859   -4.0121 H         1 <0>         0.1757
     31 H12         5.5342    0.2984   -4.2638 H         1 <0>         0.4159
     32 H13         6.1225   -2.0168   -5.5547 H         1 <0>         0.3504
     33 H14         7.2361   -0.9634   -4.9096 H         1 <0>         0.3595
@<TRIPOS>BOND
     1    1    2 1
     2    1   20 1
     3    1   21 1
     4    1   22 1
     5    2    6 2
     6    2    3 1
     7    3    4 2
     8    3   23 1
     9    4    5 1
    10    4    8 1
    11    5    6 1
    12    5    7 1
    13    7   24 1
    14    7   25 1
    15    7   26 1
    16    8    9 1
    17    8   27 1
    18    9   10 2
    19    9   11 2
    20    9   12 1
    21   12   17 ar
    22   12   13 ar
    23   13   14 ar
    24   13   28 1
    25   14   15 ar
    26   14   29 1
    27   15   16 ar
    28   15   18 1
    29   16   17 ar
    30   17   30 1
    31   18   19 1
    32   18   31 1
    33   19   32 1
    34   19   33 1
@<TRIPOS>MOLECULE
ZINC48798632
   32    33     0     0     0
SMALL
USER_CHARGES

@<TRIPOS>ATOM
      1 C1         -0.0184    1.5028    0.0103 C.3       1 <0>        -0.1296
      2 C2          0.0021   -0.0041    0.0020 C.2       1 <0>         0.2060
      3 C3         -1.1561   -0.6982    0.0037 C.2       1 <0>        -0.2687
      4 C4         -1.1111   -2.1132   -0.0047 C.2       1 <0>         0.5547
      5 O1         -2.1424   -2.7608   -0.0038 O.2       1 <0>        -0.5056
      6 N1          0.0842   -2.7371   -0.0142 N.am      1 <0>        -0.6592
      7 H1          0.1232   -3.7063   -0.0203 H         1 <0>         0.4330
      8 C5          1.2235   -2.0204   -0.0156 C.2       1 <0>         0.6996
      9 O2          2.2941   -2.5967   -0.0242 O.2       1 <0>        -0.5380
     10 N2          1.1944   -0.6753   -0.0130 N.am      1 <0>        -0.6336
     11 H2          2.0264   -0.1767   -0.0182 H         1 <0>         0.4363
     12 C6         -2.4789    0.0237    0.0149 C.3       1 <0>        -0.0306
     13 C7         -2.9941    0.1664   -1.4187 C.3       1 <0>        -0.1323
     14 C8         -4.3169    0.8883   -1.4075 C.2       1 <0>         0.5250
     15 O3         -4.8001    1.2527   -0.3564 O.2       1 <0>        -0.5093
     16 N3         -4.9631    1.1289   -2.5655 N.am      1 <0>        -0.6384
     17 C9         -6.1934    1.8002   -2.5551 C.2       1 <0>         0.2987
     18 C10        -6.8615    2.2803   -1.4173 C.2       1 <0>        -0.2690
     19 C11        -8.0105    2.8646   -1.8263 C.2       1 <0>         0.0679
     20 N4         -8.0718    2.7609   -3.1706 N.pl3     1 <0>        -0.4700
     21 H3         -8.7869    3.0929   -3.7357 H         1 <0>         0.4432
     22 N5         -6.9195    2.0951   -3.6076 N.2       1 <0>        -0.3235
     23 H4          1.0042    1.8801    0.0026 H         1 <0>         0.0820
     24 H5         -0.5455    1.8639   -0.8728 H         1 <0>         0.1006
     25 H6         -0.5286    1.8543    0.9071 H         1 <0>         0.1047
     26 H7         -3.1981   -0.5448    0.6045 H         1 <0>         0.0933
     27 H8         -2.3494    1.0126    0.4546 H         1 <0>         0.0887
     28 H9         -2.2749    0.7349   -2.0083 H         1 <0>         0.0986
     29 H10        -3.1236   -0.8225   -1.8584 H         1 <0>         0.1041
     30 H11        -4.5768    0.8374   -3.4062 H         1 <0>         0.4165
     31 H12        -6.5186    2.1975   -0.3965 H         1 <0>         0.1732
     32 H13        -8.7481    3.3310   -1.1902 H         1 <0>         0.1815
@<TRIPOS>BOND
     1    1    2 1
     2    1   23 1
     3    1   24 1
     4    1   25 1
     5    2   10 1
     6    2    3 2
     7    3    4 1
     8    3   12 1
     9    4    5 2
    10    4    6 am
    11    6    7 1
    12    6    8 am
    13    8    9 2
    14    8   10 am
    15   10   11 1
    16   12   13 1
    17   12   26 1
    18   12   27 1
    19   13   14 1
    20   13   28 1
    21   13   29 1
    22   14   15 2
    23   14   16 am
    24   16   17 1
    25   16   30 1
    26   17   22 2
    27   17   18 1
    28   18   19 2
    29   18   31 1
    30   19   20 1
    31   19   32 1
    32   20   21 1
    33   20   22 1
@<TRIPOS>MOLECULE
ZINC51120396
   30    31     0     0     0
SMALL
USER_CHARGES

@<TRIPOS>ATOM
      1 C1         -0.0184    1.5028    0.0103 C.3       1 <0>        -0.0744
      2 C2          0.0021   -0.0041    0.0020 C.2       1 <0>         0.2510
      3 N1          0.0076   -0.7759   -1.0906 N.2       1 <0>        -0.5195
      4 C3          0.0262   -2.0345   -0.7496 C.2       1 <0>         0.2715
      5 O1          0.0333   -2.1066    0.5874 O.3       1 <0>        -0.0959
      6 N2          0.0229   -0.7667    1.0572 N.2       1 <0>        -0.3294
      7 C4          0.0378   -3.2062   -1.6973 C.3       1 <0>         0.2096
      8 N3          1.4226   -3.5671   -2.0107 N.am      1 <0>        -0.7201
      9 C5          1.6791   -4.5940   -2.8451 C.2       1 <0>         0.5748
     10 O2          0.7616   -5.2204   -3.3374 O.2       1 <0>        -0.5122
     11 C6          3.0797   -4.9590   -3.1620 C.ar      1 <0>        -0.0318
     12 C7          3.3660   -6.0153   -4.0282 C.ar      1 <0>        -0.1712
     13 C8          4.6947   -6.3233   -4.2983 C.ar      1 <0>         0.4304
     14 N4          5.6761   -5.6285   -3.7449 N.ar      1 <0>        -0.5078
     15 C9          5.4421   -4.6239   -2.9217 C.ar      1 <0>         0.2283
     16 C10         4.1499   -4.2501   -2.6055 C.ar      1 <0>        -0.1911
     17 Cl1         6.7770   -3.7551   -2.2312 Cl        1 <0>        -0.0185
     18 N5          4.9959   -7.3730   -5.1587 N.pl3     1 <0>        -0.5641
     19 N6          6.2986   -7.6821   -5.4293 N.3       1 <0>        -0.5966
     20 H1          1.0042    1.8801    0.0026 H         1 <0>         0.0997
     21 H2         -0.5455    1.8639   -0.8728 H         1 <0>         0.1002
     22 H3         -0.5286    1.8543    0.9071 H         1 <0>         0.0938
     23 H4         -0.4624   -4.0552   -1.2315 H         1 <0>         0.1161
     24 H5         -0.4839   -2.9360   -2.6154 H         1 <0>         0.1256
     25 H6          2.1550   -3.0670   -1.6177 H         1 <0>         0.4091
     26 H7          2.5680   -6.5847   -4.4814 H         1 <0>         0.1551
     27 H8          3.9684   -3.4239   -1.9340 H         1 <0>         0.1442
     28 H9          4.2809   -7.8859   -5.5669 H         1 <0>         0.4175
     29 H10         6.8102   -7.8677   -4.5796 H         1 <0>         0.3468
     30 H11         6.3604   -8.4621   -6.0664 H         1 <0>         0.3590
@<TRIPOS>BOND
     1    1    2 1
     2    1   20 1
     3    1   21 1
     4    1   22 1
     5    2    6 2
     6    2    3 1
     7    3    4 2
     8    4    5 1
     9    4    7 1
    10    5    6 1
    11    7    8 1
    12    7   23 1
    13    7   24 1
    14    8    9 am
    15    8   25 1
    16    9   10 2
    17    9   11 1
    18   11   16 ar
    19   11   12 ar
    20   12   13 ar
    21   12   26 1
    22   13   14 ar
    23   13   18 1
    24   14   15 ar
    25   15   16 ar
    26   15   17 1
    27   16   27 1
    28   18   19 1
    29   18   28 1
    30   19   29 1
    31   19   30 1
@<TRIPOS>MOLECULE
ZINC62851119
   38    38     0     0     0
SMALL
USER_CHARGES

@<TRIPOS>ATOM
      1 C1          0.6452   -0.2439    1.3633 C.3       1 <0>        -0.1472
      2 C2          0.0331   -0.0756   -0.0288 C.3       1 <0>        -0.0909
      3 C3          0.8843   -0.8269   -1.0545 C.3       1 <0>        -0.1545
      4 C4         -1.3882   -0.6419   -0.0329 C.3       1 <0>        -0.1315
      5 C5         -2.0504   -0.3483   -1.3805 C.3       1 <0>         0.1534
      6 H1         -1.4402   -0.7627   -2.1831 H         1 <0>         0.1103
      7 C6         -3.4197   -0.9765   -1.4149 C.2       1 <0>         0.5082
      8 O1         -4.4035   -0.2979   -1.2084 O.2       1 <0>        -0.4913
      9 N1         -3.5512   -2.2923   -1.6751 N.am      1 <0>        -0.6232
     10 C7         -4.8751   -2.9357   -1.7219 C.3       1 <0>         0.0958
     11 C8         -5.0833   -3.4976   -3.1296 C.3       1 <0>         0.0952
     12 N2         -3.9048   -4.2294   -3.5732 N.am      1 <0>        -0.7159
     13 C9         -2.6776   -4.0596   -3.0792 C.2       1 <0>         0.5121
     14 O2         -1.7606   -4.6712   -3.5851 O.2       1 <0>        -0.5430
     15 C10        -2.3788   -3.1427   -1.9297 C.3       1 <0>         0.0935
     16 N3         -2.1732    1.1006   -1.5589 N.am      1 <0>        -0.7336
     17 C11        -2.8880    1.8297   -0.6792 C.2       1 <0>         0.7117
     18 O3         -3.4310    1.2850    0.2624 O.2       1 <0>        -0.5650
     19 N4         -3.0010    3.1627   -0.8434 N.am      1 <0>        -0.8692
     20 H2          1.6862    0.0789    1.3439 H         1 <0>         0.0563
     21 H3          0.0903    0.3616    2.0798 H         1 <0>         0.0549
     22 H4          0.5953   -1.2922    1.6578 H         1 <0>         0.0557
     23 H5          0.0033    0.9829   -0.2871 H         1 <0>         0.0717
     24 H6          0.9142   -1.8855   -0.7962 H         1 <0>         0.0587
     25 H7          0.4483   -0.7070   -2.0462 H         1 <0>         0.0519
     26 H8          1.8969   -0.4235   -1.0516 H         1 <0>         0.0585
     27 H9         -1.3504   -1.7195    0.1263 H         1 <0>         0.0743
     28 H10        -1.9669   -0.1768    0.7653 H         1 <0>         0.0989
     29 H11        -4.9167   -3.7450   -0.9930 H         1 <0>         0.0821
     30 H12        -5.6491   -2.2007   -1.5011 H         1 <0>         0.1142
     31 H13        -5.9418   -4.1692   -3.1244 H         1 <0>         0.0936
     32 H14        -5.2759   -2.6757   -3.8191 H         1 <0>         0.0721
     33 H15        -4.0206   -4.8867   -4.2772 H         1 <0>         0.4033
     34 H16        -1.5207   -2.5173   -2.1757 H         1 <0>         0.1193
     35 H17        -2.1582   -3.7356   -1.0420 H         1 <0>         0.1096
     36 H18        -1.7400    1.5353   -2.3102 H         1 <0>         0.4008
     37 H19        -2.5678    3.5973   -1.5946 H         1 <0>         0.3942
     38 H20        -3.5155    3.6874   -0.2102 H         1 <0>         0.4152
@<TRIPOS>BOND
     1    1    2 1
     2    1   20 1
     3    1   21 1
     4    1   22 1
     5    2    3 1
     6    2    4 1
     7    2   23 1
     8    3   24 1
     9    3   25 1
    10    3   26 1
    11    4    5 1
    12    4   27 1
    13    4   28 1
    14    5    6 1
    15    5    7 1
    16    5   16 1
    17    7    8 2
    18    7    9 am
    19    9   15 1
    20    9   10 1
    21   10   11 1
    22   10   29 1
    23   10   30 1
    24   11   12 1
    25   11   31 1
    26   11   32 1
    27   12   13 am
    28   12   33 1
    29   13   14 2
    30   13   15 1
    31   15   34 1
    32   15   35 1
    33   16   17 am
    34   16   36 1
    35   17   18 2
    36   17   19 am
    37   19   37 1
    38   19   38 1
@<TRIPOS>MOLECULE
ZINC08515276
   37    39     0     0     0
SMALL
USER_CHARGES
N-cyclopropyl-2-[(2,4,6-trioxohexahydropyrimidin-5-ylidene)methylamino]benzamide
@<TRIPOS>ATOM
      1 C1         -1.2813   10.1601   -0.3707 C.ar      1 <0>        -0.1474
      2 C2         -0.0794    9.4705   -0.3640 C.ar      1 <0>        -0.0501
      3 C3         -0.0634    8.0960   -0.2408 C.ar      1 <0>        -0.1763
      4 C4         -1.2564    7.3930   -0.1340 C.ar      1 <0>         0.2014
      5 C5         -2.4750    8.0883   -0.1406 C.ar      1 <0>        -0.1744
      6 C6         -2.4747    9.4799   -0.2602 C.ar      1 <0>        -0.0505
      7 C7         -3.7490    7.3540   -0.0213 C.2       1 <0>         0.5654
      8 O1         -3.7527    6.1381   -0.0266 O.2       1 <0>        -0.5264
      9 N1         -4.9088    8.0310    0.0935 N.am      1 <0>        -0.7204
     10 C8         -6.1739    7.3018    0.2120 C.3       1 <0>        -0.0237
     11 C9         -7.3600    7.8066   -0.6121 C.3       1 <0>        -0.1431
     12 C10        -7.3379    8.0143    0.9036 C.3       1 <0>        -0.1366
     13 N2         -1.2430    6.0066   -0.0155 N.pl3     1 <0>        -0.6129
     14 C11        -0.0698    5.3519    0.1210 C.2       1 <0>         0.3147
     15 C12        -0.0460    3.9700    0.1259 C.2       1 <0>        -0.4181
     16 C13         1.2244    3.2224    0.1389 C.2       1 <0>         0.5918
     17 O2          2.2923    3.8053    0.1464 O.2       1 <0>        -0.5144
     18 N3          1.1708    1.8745    0.1426 N.am      1 <0>        -0.6786
     19 C14         0.0013    1.2198    0.1353 C.2       1 <0>         0.7192
     20 O3          0.0221    0.0046    0.1393 O.2       1 <0>        -0.5427
     21 N4         -1.1901    1.8339    0.1184 N.am      1 <0>        -0.6774
     22 C15        -1.2900    3.1791    0.1180 C.2       1 <0>         0.5771
     23 O4         -2.3773    3.7249    0.1072 O.2       1 <0>        -0.5025
     24 H1         -1.2828   11.2362   -0.4628 H         1 <0>         0.1368
     25 H2          0.8507   10.0124   -0.4512 H         1 <0>         0.1391
     26 H3          0.8777    7.5661   -0.2314 H         1 <0>         0.1404
     27 H4         -3.4086   10.0222   -0.2656 H         1 <0>         0.1336
     28 H5         -4.9055    9.1310    0.0982 H         1 <0>         0.4074
     29 H6         -5.6417    6.3470    0.3351 H         1 <0>         0.1613
     30 H7         -7.0060    8.5359   -1.3556 H         1 <0>         0.1043
     31 H8         -7.8356    6.9591   -1.1274 H         1 <0>         0.1109
     32 H9         -7.7952    7.3385    1.6413 H         1 <0>         0.1117
     33 H10        -6.9656    8.9153    1.4131 H         1 <0>         0.1043
     34 H11        -2.1880    5.4439   -0.0330 H         1 <0>         0.4716
     35 H12         0.8669    5.9185    0.2283 H         1 <0>         0.1772
     36 H13         2.1008    1.2871    0.1518 H         1 <0>         0.4640
     37 H14        -2.1153    1.2391    0.1044 H         1 <0>         0.4632
@<TRIPOS>BOND
     1    1    6 ar
     2    1    2 ar
     3    1   24 1
     4    2    3 ar
     5    2   25 1
     6    3    4 ar
     7    3   26 1
     8    4    5 ar
     9    4   13 1
    10    5    6 ar
    11    5    7 1
    12    6   27 1
    13    7    8 2
    14    7    9 am
    15    9   10 1
    16    9   28 1
    17   10   12 1
    18   10   11 1
    19   10   29 1
    20   11   12 1
    21   11   30 1
    22   11   31 1
    23   12   32 1
    24   12   33 1
    25   13   14 1
    26   13   34 1
    27   14   15 2
    28   14   35 1
    29   15   22 1
    30   15   16 1
    31   16   17 2
    32   16   18 am
    33   18   19 am
    34   18   36 1
    35   19   20 2
    36   19   21 am
    37   21   22 am
    38   21   37 1
    39   22   23 2
@<TRIPOS>MOLECULE
ZINC40378368
   40    41     0     0     0
SMALL
USER_CHARGES

@<TRIPOS>ATOM
      1 C1         -0.0187    1.5277    0.0104 C.3       1 <0>        -0.1367
      2 C2          1.4185    2.0534   -0.0005 C.3       1 <0>        -0.1189
      3 C3          2.1487    1.5734    1.2559 C.3       1 <0>        -0.1099
      4 H1          1.6189    1.9249    2.1413 H         1 <0>         0.0882
      5 C4          2.1940    0.0421    1.2616 C.3       1 <0>         0.1155
      6 N1          0.8243   -0.4720    1.1261 N.am      1 <0>        -0.6093
      7 C5          0.0021   -0.0041    0.0020 C.3       1 <0>         0.1005
      8 C6          0.3317   -1.3565    2.0158 C.2       1 <0>         0.5014
      9 O1          1.0207   -1.7354    2.9392 O.2       1 <0>        -0.5197
     10 C7         -1.0752   -1.8746    1.8632 C.3       1 <0>         0.1139
     11 H2         -1.2915   -2.0736    0.8135 H         1 <0>         0.1144
     12 C8         -2.0854   -0.8543    2.4331 C.3       1 <0>        -0.1211
     13 C9         -2.2664   -1.3651    3.8813 C.3       1 <0>        -0.1575
     14 C10        -1.9181   -2.8352    3.8024 C.2       1 <0>         0.5277
     15 O2         -2.1956   -3.6610    4.6462 O.2       1 <0>        -0.5237
     16 N2         -1.2563   -3.0943    2.6591 N.am      1 <0>        -0.7127
     17 C11         3.5749    2.1272    1.2607 C.3       1 <0>         0.1197
     18 N3          3.5314    3.5873    1.3722 N.pl3     1 <0>        -1.1216
     19 S1          4.9007    4.4283    1.7725 S.o2      1 <0>         2.8007
     20 O3          4.5462    5.8043    1.7741 O.2       1 <0>        -0.9827
     21 O4          5.4553    3.7832    2.9108 O.2       1 <0>        -0.9802
     22 N4          5.9825    4.2195    0.5363 N.pl3     1 <0>        -1.2620
     23 H3         -0.5281    1.8797    0.9075 H         1 <0>         0.0710
     24 H4         -0.5451    1.8893   -0.8729 H         1 <0>         0.0824
     25 H5          1.9348    1.6808   -0.8852 H         1 <0>         0.0712
     26 H6          1.4064    3.1432   -0.0193 H         1 <0>         0.0705
     27 H7          2.8003   -0.3086    0.4265 H         1 <0>         0.0746
     28 H8          2.6242   -0.3072    2.2002 H         1 <0>         0.0987
     29 H9         -1.0139   -0.3839    0.1095 H         1 <0>         0.0883
     30 H10         0.4296   -0.3586   -0.9359 H         1 <0>         0.0759
     31 H11        -1.6695    0.1532    2.4239 H         1 <0>         0.0948
     32 H12        -3.0274   -0.8908    1.8860 H         1 <0>         0.0999
     33 H13        -1.5850   -0.8474    4.5564 H         1 <0>         0.1081
     34 H14        -3.2987   -1.2345    4.2057 H         1 <0>         0.1096
     35 H15        -0.9403   -3.9724    2.3947 H         1 <0>         0.4155
     36 H16         4.1222    1.7142    2.1081 H         1 <0>         0.0876
     37 H17         4.0761    1.8483    0.3338 H         1 <0>         0.0697
     38 H18         2.7006    4.0614    1.2115 H         1 <0>         0.4206
     39 H19         5.7421    3.6791   -0.2325 H         1 <0>         0.4137
     40 H20         6.8566    4.6378    0.5809 H         1 <0>         0.4219
@<TRIPOS>BOND
     1    1    7 1
     2    1    2 1
     3    1   23 1
     4    1   24 1
     5    2    3 1
     6    2   25 1
     7    2   26 1
     8    3    4 1
     9    3    5 1
    10    3   17 1
    11    5    6 1
    12    5   27 1
    13    5   28 1
    14    6    7 1
    15    6    8 am
    16    7   29 1
    17    7   30 1
    18    8    9 2
    19    8   10 1
    20   10   11 1
    21   10   16 1
    22   10   12 1
    23   12   13 1
    24   12   31 1
    25   12   32 1
    26   13   14 1
    27   13   33 1
    28   13   34 1
    29   14   15 2
    30   14   16 am
    31   16   35 1
    32   17   18 1
    33   17   36 1
    34   17   37 1
    35   18   19 1
    36   18   38 1
    37   19   20 2
    38   19   21 2
    39   19   22 1
    40   22   39 1
    41   22   40 1
@<TRIPOS>MOLECULE
ZINC44771135
   36    37     0     0     0
SMALL
USER_CHARGES

@<TRIPOS>ATOM
      1 C1         -0.0180    1.4606    0.0100 C.3       1 <0>         0.0574
      2 N1          0.0010   -0.0042    0.0021 N.pl3     1 <0>        -0.3977
      3 C2         -0.0899   -0.7900   -1.0984 C.2       1 <0>         0.1412
      4 C3         -0.0367   -2.0882   -0.7155 C.2       1 <0>        -0.7577
      5 C4          0.0924   -2.1199    0.6765 C.2       1 <0>        -0.0506
      6 C5          0.1200   -0.8116    1.1106 C.2       1 <0>        -0.0581
      7 C6          0.2492   -0.3619    2.5008 C.2       1 <0>         0.5958
      8 O1          0.1697    0.8229    2.7670 O.2       1 <0>        -0.5461
      9 N2          0.4559   -1.2609    3.4834 N.am      1 <0>        -0.8399
     10 S1         -0.1160   -3.4885   -1.7821 S.o2      1 <0>         2.7344
     11 O2         -0.5813   -4.5745   -0.9926 O.2       1 <0>        -0.9308
     12 O3         -0.7840   -3.0630   -2.9619 O.2       1 <0>        -0.9551
     13 N3          1.4371   -3.8559   -2.2240 N.pl3     1 <0>        -0.9926
     14 C7          2.1476   -3.3147   -3.3969 C.3       1 <0>         0.1185
     15 C8          3.6503   -3.4360   -3.0410 C.3       1 <0>        -0.1294
     16 C9          3.6801   -4.7819   -2.2695 C.3       1 <0>        -0.1205
     17 C10         2.3379   -4.7710   -1.5080 C.3       1 <0>         0.1340
     18 H1          2.4911   -4.4180   -0.4882 H         1 <0>         0.1033
     19 C11         1.7506   -6.1588   -1.4903 C.2       1 <0>         0.4988
     20 O4          0.6819   -6.3717   -2.0226 O.2       1 <0>        -0.5097
     21 N4          2.4130   -7.1632   -0.8830 N.am      1 <0>        -0.8544
     22 H2          1.0049    1.8372    0.0119 H         1 <0>         0.0853
     23 H3         -0.5365    1.8221   -0.8780 H         1 <0>         0.0928
     24 H4         -0.5364    1.8125    0.9019 H         1 <0>         0.1070
     25 H5         -0.1886   -0.4385   -2.1148 H         1 <0>         0.1895
     26 H6          0.1611   -3.0027    1.2948 H         1 <0>         0.1592
     27 H7          0.5924   -2.1960    3.2644 H         1 <0>         0.4055
     28 H8          0.4683   -0.9729    4.4096 H         1 <0>         0.4126
     29 H9          1.9190   -3.9047   -4.2844 H         1 <0>         0.0761
     30 H10         1.8783   -2.2703   -3.5549 H         1 <0>         0.0804
     31 H11         4.2621   -3.4884   -3.9416 H         1 <0>         0.0891
     32 H12         3.9683   -2.6123   -2.4020 H         1 <0>         0.0805
     33 H13         3.7280   -5.6223   -2.9619 H         1 <0>         0.0841
     34 H14         4.5167   -4.8078   -1.5714 H         1 <0>         0.0921
     35 H15         3.2677   -6.9928   -0.4572 H         1 <0>         0.4002
     36 H16         2.0349   -8.0564   -0.8716 H         1 <0>         0.4048
@<TRIPOS>BOND
     1    1    2 1
     2    1   22 1
     3    1   23 1
     4    1   24 1
     5    2    6 1
     6    2    3 1
     7    3    4 2
     8    3   25 1
     9    4    5 1
    10    4   10 1
    11    5    6 2
    12    5   26 1
    13    6    7 1
    14    7    8 2
    15    7    9 am
    16    9   27 1
    17    9   28 1
    18   10   11 2
    19   10   12 2
    20   10   13 1
    21   13   17 1
    22   13   14 1
    23   14   15 1
    24   14   29 1
    25   14   30 1
    26   15   16 1
    27   15   31 1
    28   15   32 1
    29   16   17 1
    30   16   33 1
    31   16   34 1
    32   17   18 1
    33   17   19 1
    34   19   20 2
    35   19   21 am
    36   21   35 1
    37   21   36 1
@<TRIPOS>MOLECULE
ZINC19972640
   43    45     0     0     0
SMALL
USER_CHARGES

@<TRIPOS>ATOM
      1 C1         -0.0159    1.3737   -0.0139 C.ar      1 <0>        -0.1801
      2 C2          1.1721    2.0902   -0.0027 C.ar      1 <0>        -0.0666
      3 C3          2.3861    1.4380   -0.0028 C.ar      1 <0>        -0.1875
      4 C4          2.4271    0.0472   -0.0137 C.ar      1 <0>         0.2138
      5 C5          1.2243   -0.6771   -0.0246 C.ar      1 <0>        -0.1946
      6 C6          0.0026   -0.0035   -0.0249 C.ar      1 <0>        -0.0336
      7 C7          1.2806   -2.1508   -0.0362 C.2       1 <0>         0.4352
      8 C8          2.5629   -2.7670   -0.0358 C.2       1 <0>        -0.4974
      9 C9          3.7056   -1.9717   -0.0246 C.2       1 <0>         0.5218
     10 O1          4.9154   -2.5643   -0.0247 O.3       1 <0>        -0.6312
     11 N1          3.6357   -0.6212   -0.0144 N.pl3     1 <0>        -0.6340
     12 H1          4.4583   -0.1071   -0.0071 H         1 <0>         0.4034
     13 C10         2.6803   -4.2293   -0.0466 C.2       1 <0>         0.5984
     14 O2          3.7744   -4.7511   -0.1540 O.2       1 <0>        -0.5566
     15 N2          1.5764   -4.9947    0.0624 N.am      1 <0>        -0.7479
     16 C11         1.7018   -6.4508    0.1641 C.3       1 <0>         0.1302
     17 C12         0.3098   -7.0760    0.2764 C.3       1 <0>         0.0474
     18 N3          0.4356   -8.5360    0.3784 N.3       1 <0>        -0.5351
     19 C13         1.0890   -8.9218    1.6371 C.3       1 <0>         0.0156
     20 C14         1.2542  -10.4425    1.6774 C.3       1 <0>        -0.0018
     21 N4         -0.0644  -11.0814    1.5744 N.4       1 <0>        -0.5076
     22 C15        -0.6939  -10.7064    0.3013 C.3       1 <0>        -0.0014
     23 C16        -0.8754   -9.1878    0.2496 C.3       1 <0>         0.0235
     24 O3          0.2613   -2.8193   -0.0455 O.2       1 <0>        -0.5674
     25 H2         -0.9599    1.8984   -0.0096 H         1 <0>         0.1210
     26 H3          1.1453    3.1699    0.0058 H         1 <0>         0.1231
     27 H4          3.3047    2.0057    0.0053 H         1 <0>         0.1258
     28 H5         -0.9236   -0.5589   -0.0339 H         1 <0>         0.1305
     29 H6          0.6988   -4.5816    0.0735 H         1 <0>         0.4085
     30 H7          2.2022   -6.8353   -0.7246 H         1 <0>         0.0646
     31 H8          2.2863   -6.7043    1.0485 H         1 <0>         0.0492
     32 H9         -0.1905   -6.6914    1.1652 H         1 <0>         0.0523
     33 H10        -0.2747   -6.8225   -0.6080 H         1 <0>         0.0940
     34 H11         2.0685   -8.4477    1.6986 H         1 <0>         0.1305
     35 H12         0.4755   -8.6002    2.4788 H         1 <0>         0.0617
     36 H13         1.8790  -10.7623    0.8434 H         1 <0>         0.1403
     37 H14         1.7258  -10.7320    2.6165 H         1 <0>         0.1373
     38 H15         0.0438  -12.0838    1.6134 H         1 <0>         0.4308
     39 H16        -0.0591  -11.0248   -0.5256 H         1 <0>         0.1393
     40 H17        -1.6667  -11.1915    0.2203 H         1 <0>         0.1359
     41 H18        -1.5212   -8.8707    1.0684 H         1 <0>         0.0602
     42 H19        -1.3289   -8.9079   -0.7012 H         1 <0>         0.1237
     43 H20        -0.6465  -10.7763    2.3399 H         1 <0>         0.4248
@<TRIPOS>BOND
     1    1    6 ar
     2    1    2 ar
     3    1   25 1
     4    2    3 ar
     5    2   26 1
     6    3    4 ar
     7    3   27 1
     8    4   11 1
     9    4    5 ar
    10    5    6 ar
    11    5    7 1
    12    6   28 1
    13    7    8 1
    14    7   24 2
    15    8    9 2
    16    8   13 1
    17    9   10 1
    18    9   11 1
    19   11   12 1
    20   13   14 2
    21   13   15 am
    22   15   16 1
    23   15   29 1
    24   16   17 1
    25   16   30 1
    26   16   31 1
    27   17   18 1
    28   17   32 1
    29   17   33 1
    30   18   23 1
    31   18   19 1
    32   19   20 1
    33   19   34 1
    34   19   35 1
    35   20   21 1
    36   20   36 1
    37   20   37 1
    38   21   22 1
    39   21   38 1
    40   21   43 1
    41   22   23 1
    42   22   39 1
    43   22   40 1
    44   23   41 1
    45   23   42 1
@<TRIPOS>MOLECULE
ZINC62811462
   39    40     0     0     0
SMALL
USER_CHARGES

@<TRIPOS>ATOM
      1 C1         -0.5223    1.1360   -0.1108 C.3       1 <0>        -0.6600
      2 S1         -0.0140   -0.6014    0.0055 S.o2      1 <0>         2.6187
      3 O1          0.8961   -0.7740    1.0831 O.2       1 <0>        -0.9685
      4 O2         -1.1439   -1.4522   -0.1318 O.2       1 <0>        -0.9685
      5 N1          0.8876   -0.8731   -1.3567 N.pl3     1 <0>        -1.0889
      6 C2          2.1585   -0.1695   -1.5464 C.3       1 <0>         0.1272
      7 C3          2.9276   -0.8089   -2.7042 C.3       1 <0>         0.1420
      8 H1          3.0037   -1.8842   -2.5427 H         1 <0>         0.0847
      9 C4          4.3315   -0.2012   -2.7859 C.3       1 <0>        -0.1300
     10 C5          5.0455   -0.7416   -4.0269 C.3       1 <0>        -0.1210
     11 C6          4.2694   -0.3348   -5.2817 C.3       1 <0>        -0.1349
     12 C7          2.8648   -0.9440   -5.2283 C.3       1 <0>         0.0847
     13 N2          2.2226   -0.5491   -3.9668 N.am      1 <0>        -0.5967
     14 C8          1.0119    0.0432   -3.9680 C.2       1 <0>         0.6046
     15 O3          0.5472    0.4788   -2.9323 O.2       1 <0>        -0.5286
     16 C9          0.2510    0.1630   -5.2255 C.2       1 <0>        -0.0654
     17 C10        -0.9751    0.8534   -5.4065 C.2       1 <0>         0.1552
     18 C11        -1.2915    0.6905   -6.7186 C.2       1 <0>        -0.1051
     19 N3         -0.3030   -0.0560   -7.2773 N.pl3     1 <0>        -0.3684
     20 H2         -0.2703   -0.3261   -8.2083 H         1 <0>         0.4493
     21 N4          0.5850   -0.3469   -6.3959 N.2       1 <0>        -0.2392
     22 N5         -1.7061    1.5554   -4.4371 N.pl3     1 <0>        -0.8556
     23 H3          0.3623    1.7721   -0.1423 H         1 <0>         0.1241
     24 H4         -1.1082    1.2832   -1.0181 H         1 <0>         0.1298
     25 H5         -1.1265    1.3968    0.7582 H         1 <0>         0.1197
     26 H6          0.5742   -1.4981   -2.0291 H         1 <0>         0.4130
     27 H7          1.9632    0.8783   -1.7746 H         1 <0>         0.0887
     28 H8          2.7515   -0.2383   -0.6344 H         1 <0>         0.0749
     29 H9          4.2548    0.8840   -2.8538 H         1 <0>         0.0718
     30 H10         4.8972   -0.4713   -1.8942 H         1 <0>         0.0812
     31 H11         6.0536   -0.3297   -4.0741 H         1 <0>         0.0681
     32 H12         5.0999   -1.8287   -3.9701 H         1 <0>         0.0658
     33 H13         4.1933    0.7516   -5.3262 H         1 <0>         0.0649
     34 H14         4.7909   -0.7000   -6.1664 H         1 <0>         0.0755
     35 H15         2.2754   -0.5777   -6.0689 H         1 <0>         0.1309
     36 H16         2.9358   -2.0307   -5.2752 H         1 <0>         0.0662
     37 H17        -2.1639    1.0804   -7.2218 H         1 <0>         0.1807
     38 H18        -1.3798    1.6045   -3.5249 H         1 <0>         0.4096
     39 H19        -2.5381    1.9918   -4.6787 H         1 <0>         0.3992
@<TRIPOS>BOND
     1    1    2 1
     2    1   23 1
     3    1   24 1
     4    1   25 1
     5    2    3 2
     6    2    4 2
     7    2    5 1
     8    5    6 1
     9    5   26 1
    10    6    7 1
    11    6   27 1
    12    6   28 1
    13    7    8 1
    14    7   13 1
    15    7    9 1
    16    9   10 1
    17    9   29 1
    18    9   30 1
    19   10   11 1
    20   10   31 1
    21   10   32 1
    22   11   12 1
    23   11   33 1
    24   11   34 1
    25   12   13 1
    26   12   35 1
    27   12   36 1
    28   13   14 am
    29   14   15 2
    30   14   16 1
    31   16   21 2
    32   16   17 1
    33   17   18 2
    34   17   22 1
    35   18   19 1
    36   18   37 1
    37   19   20 1
    38   19   21 1
    39   22   38 1
    40   22   39 1
@<TRIPOS>MOLECULE
ZINC02570464
   36    38     0     0     0
SMALL
USER_CHARGES
6-amino-7-hydroxy-1,3-dimethyl-8-phenyl-pyrido[2,3-d]pyrimidine-2,4,5-trione
@<TRIPOS>ATOM
      1 C1         -2.3655    5.4988    0.3655 C.3       1 <0>        -0.0204
      2 N1         -2.3740    4.0338    0.3569 N.am      1 <0>        -0.5302
      3 C2         -1.2595    3.3532   -0.0618 C.2       1 <0>         0.4232
      4 C3         -1.2893    1.9583   -0.0689 C.2       1 <0>        -0.3667
      5 C4         -0.1037    1.2216   -0.5068 C.2       1 <0>         0.4199
      6 O1         -0.0887   -0.0006   -0.5220 O.2       1 <0>        -0.5487
      7 C5          1.0235    1.9729   -0.9179 C.2       1 <0>        -0.1131
      8 C6          0.9717    3.3325   -0.8879 C.2       1 <0>         0.3876
      9 N2         -0.1414    4.0068   -0.4703 N.pl3     1 <0>        -0.4391
     10 C7         -0.1287    5.4075   -0.4639 C.ar      1 <0>         0.1564
     11 C8         -0.7699    6.1137   -1.4730 C.ar      1 <0>        -0.1206
     12 C9         -0.7600    7.4948   -1.4610 C.ar      1 <0>        -0.1145
     13 C10        -0.1028    8.1742   -0.4517 C.ar      1 <0>        -0.1191
     14 C11         0.5411    7.4738    0.5518 C.ar      1 <0>        -0.1058
     15 C12         0.5300    6.0927    0.5485 C.ar      1 <0>        -0.1093
     16 O2          2.0563    4.0389   -1.2835 O.3       1 <0>        -0.6926
     17 N3          2.1923    1.3169   -1.3550 N.pl3     1 <0>        -0.8859
     18 C13        -2.5027    1.2762    0.3817 C.2       1 <0>         0.5750
     19 O3         -2.5689    0.0611    0.3957 O.2       1 <0>        -0.4860
     20 N4         -3.5504    2.0340    0.7768 N.am      1 <0>        -0.5655
     21 C14        -3.4739    3.3749    0.7591 C.2       1 <0>         0.7102
     22 O4         -4.4390    4.0187    1.1221 O.2       1 <0>        -0.5564
     23 C15        -4.7836    1.3851    1.2289 C.3       1 <0>         0.0801
     24 H1         -1.3909    5.8619    0.0073 H         1 <0>         0.1672
     25 H2         -2.5376    5.8604    1.3900 H         1 <0>         0.0733
     26 H3         -3.1616    5.8739   -0.2944 H         1 <0>         0.0782
     27 H4         -1.2792    5.5836   -2.2641 H         1 <0>         0.1323
     28 H5         -1.2620    8.0446   -2.2434 H         1 <0>         0.1328
     29 H6         -0.0927    9.2541   -0.4470 H         1 <0>         0.1287
     30 H7          1.0529    8.0072    1.3390 H         1 <0>         0.1315
     31 H8          1.0328    5.5462    1.3327 H         1 <0>         0.1320
     32 H9          3.0661    1.9042   -1.6737 H         1 <0>         0.4005
     33 H10         2.2304    0.2178   -1.3774 H         1 <0>         0.3970
     34 H11        -5.5204    2.1525    1.5087 H         1 <0>         0.0972
     35 H12        -4.5657    0.7507    2.1007 H         1 <0>         0.0754
     36 H13        -5.1906    0.7649    0.4167 H         1 <0>         0.0755
@<TRIPOS>BOND
     1    1    2 1
     2    1   24 1
     3    1   25 1
     4    1   26 1
     5    2   21 am
     6    2    3 1
     7    3    9 1
     8    3    4 2
     9    4    5 1
    10    4   18 1
    11    5    6 2
    12    5    7 1
    13    7    8 2
    14    7   17 1
    15    8    9 1
    16    8   16 1
    17    9   10 1
    18   10   15 ar
    19   10   11 ar
    20   11   12 ar
    21   11   27 1
    22   12   13 ar
    23   12   28 1
    24   13   14 ar
    25   13   29 1
    26   14   15 ar
    27   14   30 1
    28   15   31 1
    29   17   32 1
    30   17   33 1
    31   18   19 2
    32   18   20 am
    33   20   21 am
    34   20   23 1
    35   21   22 2
    36   23   34 1
    37   23   35 1
    38   23   36 1
@<TRIPOS>MOLECULE
ZINC37457169
   38    39     0     0     0
SMALL
USER_CHARGES

@<TRIPOS>ATOM
      1 C1         -0.0559    1.4041    0.0033 C.3       1 <0>        -0.1078
      2 C2          1.3498    2.0388   -0.0099 C.3       1 <0>        -0.1228
      3 C3          1.9012    2.0079    1.3898 C.3       1 <0>        -0.1176
      4 C4          2.7766    0.7674    1.6512 C.3       1 <0>        -0.1065
      5 C5          2.1825   -0.5206    1.0496 C.3       1 <0>         0.1097
      6 C6          0.6946   -0.6175    1.2516 C.3       1 <0>        -0.0942
      7 C7         -0.0079   -0.0505    0.0009 C.3       1 <0>        -0.1231
      8 C8          2.8411   -1.7107    1.6984 C.2       1 <0>         0.4999
      9 O1          2.7558   -1.8727    2.9038 O.co2     1 <0>        -0.6980
     10 O2          3.4593   -2.5115    1.0179 O.co2     1 <0>        -0.6731
     11 N1          2.4686   -0.5485   -0.3869 N.am      1 <0>        -0.6805
     12 C9          2.1154   -1.6204   -1.1236 C.2       1 <0>         0.5752
     13 O3          1.5590   -2.5648   -0.5957 O.2       1 <0>        -0.4933
     14 C10         2.4020   -1.6484   -2.5625 C.2       1 <0>         0.1076
     15 N2          3.0003   -0.6391   -3.1152 N.2       1 <0>        -0.2257
     16 N3          3.2880   -0.6298   -4.4838 N.am      1 <0>        -0.5616
     17 C11         2.6348   -1.4567   -5.3237 C.2       1 <0>         0.4985
     18 O4          2.8851   -1.4412   -6.5100 O.2       1 <0>        -0.5305
     19 C12         1.5918   -2.4016   -4.7827 C.3       1 <0>        -0.1421
     20 C13         2.0030   -2.8508   -3.3757 C.3       1 <0>        -0.1102
     21 H1         -0.5857    1.7383    0.8953 H         1 <0>         0.0547
     22 H2         -0.6034    1.7406   -0.8770 H         1 <0>         0.0479
     23 H3          2.0020    1.4704   -0.6730 H         1 <0>         0.0703
     24 H4          1.2824    3.0707   -0.3542 H         1 <0>         0.0551
     25 H5          2.5010    2.9034    1.5524 H         1 <0>         0.0540
     26 H6          1.0710    2.0088    2.0961 H         1 <0>         0.0606
     27 H7          3.7627    0.9353    1.2181 H         1 <0>         0.0565
     28 H8          2.8859    0.6347    2.7276 H         1 <0>         0.0823
     29 H9          0.4109   -1.6609    1.3895 H         1 <0>         0.0702
     30 H10         0.4056   -0.0377    2.1283 H         1 <0>         0.0633
     31 H11        -1.0262   -0.4373   -0.0378 H         1 <0>         0.0482
     32 H12         0.5286   -0.3846   -0.8872 H         1 <0>         0.0642
     33 H13         2.9122    0.2044   -0.8078 H         1 <0>         0.3935
     34 H14         3.9616   -0.0242   -4.8307 H         1 <0>         0.4304
     35 H15         0.6281   -1.8941   -4.7394 H         1 <0>         0.1072
     36 H16         1.5167   -3.2724   -5.4340 H         1 <0>         0.1168
     37 H17         2.8452   -3.5395   -3.4425 H         1 <0>         0.1027
     38 H18         1.1626   -3.3515   -2.8949 H         1 <0>         0.1183
@<TRIPOS>BOND
     1    1    7 1
     2    1    2 1
     3    1   21 1
     4    1   22 1
     5    2    3 1
     6    2   23 1
     7    2   24 1
     8    3    4 1
     9    3   25 1
    10    3   26 1
    11    4    5 1
    12    4   27 1
    13    4   28 1
    14    5    6 1
    15    5    8 1
    16    5   11 1
    17    6    7 1
    18    6   29 1
    19    6   30 1
    20    7   31 1
    21    7   32 1
    22    8    9 2
    23    8   10 1
    24   11   12 am
    25   11   33 1
    26   12   13 2
    27   12   14 1
    28   14   20 1
    29   14   15 2
    30   15   16 1
    31   16   17 am
    32   16   34 1
    33   17   18 2
    34   17   19 1
    35   19   20 1
    36   19   35 1
    37   19   36 1
    38   20   37 1
    39   20   38 1
@<TRIPOS>MOLECULE
ZINC40590966
   43    44     0     0     0
SMALL
USER_CHARGES

@<TRIPOS>ATOM
      1 C1         -0.0084    1.5374    0.0129 C.3       1 <0>        -0.1785
      2 C2          0.0081    0.0075    0.0005 C.3       1 <0>         0.1060
      3 H1          0.5188   -0.3430   -0.8963 H         1 <0>         0.0648
      4 C3          0.7445   -0.5047    1.2400 C.3       1 <0>         0.1010
      5 H2          1.7681   -0.1302    1.2350 H         1 <0>         0.0883
      6 C4          0.7607   -2.0115    1.2277 C.2       1 <0>         0.4979
      7 O1          1.6775   -2.6069    0.6878 O.co2     1 <0>        -0.7041
      8 O2         -0.1430   -2.6352    1.7577 O.co2     1 <0>        -0.6795
      9 N1          0.0580   -0.0335    2.4453 N.am      1 <0>        -0.7049
     10 C5          0.7380    0.0932    3.6021 C.2       1 <0>         0.7063
     11 O3          1.8964   -0.2700    3.6693 O.2       1 <0>        -0.5837
     12 N2          0.1338    0.6224    4.6844 N.am      1 <0>        -0.6325
     13 C6         -1.2986    0.9563    4.6626 C.3       1 <0>         0.1134
     14 C7         -1.4801    2.4150    5.0913 C.3       1 <0>        -0.1328
     15 C8         -0.7950    2.6452    6.4417 C.3       1 <0>        -0.1115
     16 C9          0.6979    2.3512    6.3038 C.3       1 <0>        -0.1003
     17 H3          1.1217    2.9872    5.5266 H         1 <0>         0.0719
     18 C10         0.8854    0.8755    5.9184 C.3       1 <0>         0.1737
     19 H4          0.5030    0.2372    6.7149 H         1 <0>         0.0624
     20 C11         2.3729    0.5972    5.7079 C.3       1 <0>        -0.1088
     21 C12         3.1210    0.8658    7.0169 C.3       1 <0>        -0.1260
     22 C13         2.9199    2.3212    7.4409 C.3       1 <0>        -0.1196
     23 C14         1.4238    2.6105    7.6232 C.3       1 <0>        -0.1086
     24 O4         -1.3340   -0.4833    0.0070 O.3       1 <0>        -0.5468
     25 H5          1.0153    1.9118    0.0080 H         1 <0>         0.0625
     26 H6         -0.5330    1.9023   -0.8701 H         1 <0>         0.0521
     27 H7         -0.5192    1.8880    0.9098 H         1 <0>         0.0589
     28 H8         -0.8859    0.1874    2.4109 H         1 <0>         0.3908
     29 H9         -1.6888    0.8218    3.6537 H         1 <0>         0.0783
     30 H10        -1.8353    0.3044    5.3518 H         1 <0>         0.0643
     31 H11        -1.0359    3.0710    4.3427 H         1 <0>         0.0646
     32 H12        -2.5435    2.6368    5.1817 H         1 <0>         0.0715
     33 H13        -0.9352    3.6815    6.7493 H         1 <0>         0.0615
     34 H14        -1.2295    1.9808    7.1886 H         1 <0>         0.0627
     35 H15         2.5114   -0.4437    5.4157 H         1 <0>         0.0989
     36 H16         2.7593    1.2513    4.9262 H         1 <0>         0.0675
     37 H17         2.7379    0.2057    7.7951 H         1 <0>         0.0564
     38 H18         4.1843    0.6743    6.8723 H         1 <0>         0.0615
     39 H19         3.4431    2.5003    8.3802 H         1 <0>         0.0569
     40 H20         3.3220    2.9812    6.6722 H         1 <0>         0.0587
     41 H21         1.2827    3.6502    7.9188 H         1 <0>         0.0608
     42 H22         1.0235    1.9531    8.3949 H         1 <0>         0.0613
     43 H23        -1.8610   -0.1975   -0.7517 H         1 <0>         0.3625
@<TRIPOS>BOND
     1    1    2 1
     2    1   25 1
     3    1   26 1
     4    1   27 1
     5    2    3 1
     6    2    4 1
     7    2   24 1
     8    4    5 1
     9    4    6 1
    10    4    9 1
    11    6    7 2
    12    6    8 1
    13    9   10 am
    14    9   28 1
    15   10   11 2
    16   10   12 am
    17   12   18 1
    18   12   13 1
    19   13   14 1
    20   13   29 1
    21   13   30 1
    22   14   15 1
    23   14   31 1
    24   14   32 1
    25   15   16 1
    26   15   33 1
    27   15   34 1
    28   16   17 1
    29   16   23 1
    30   16   18 1
    31   18   19 1
    32   18   20 1
    33   20   21 1
    34   20   35 1
    35   20   36 1
    36   21   22 1
    37   21   37 1
    38   21   38 1
    39   22   23 1
    40   22   39 1
    41   22   40 1
    42   23   41 1
    43   23   42 1
    44   24   43 1
@<TRIPOS>MOLECULE
ZINC50292375
   32    33     0     0     0
SMALL
USER_CHARGES

@<TRIPOS>ATOM
      1 C1          0.7325    1.2007   -0.7111 C.3       1 <0>        -0.1154
      2 C2          2.2054    1.5254   -0.4514 C.3       1 <0>        -0.1391
      3 C3          2.5390    1.2279    1.0139 C.3       1 <0>         0.1179
      4 N1          2.1660   -0.1617    1.3111 N.am      1 <0>        -0.5920
      5 C4          0.7969   -0.6046    1.0141 C.3       1 <0>         0.1275
      6 H1          0.0944   -0.0790    1.6608 H         1 <0>         0.0803
      7 C5          0.4828   -0.2866   -0.4511 C.3       1 <0>        -0.1198
      8 C6          0.6844   -2.0892    1.2473 C.2       1 <0>         0.5425
      9 O1          1.3600   -2.8581    0.5967 O.2       1 <0>        -0.5313
     10 N2         -0.1670   -2.5625    2.1787 N.am      1 <0>        -0.8559
     11 C7          3.0627   -1.0141    1.8457 C.2       1 <0>         0.5763
     12 O2          2.7159   -2.1264    2.1828 O.2       1 <0>        -0.5312
     13 C8          4.4962   -0.5852    2.0246 C.3       1 <0>        -0.2229
     14 C9          5.4824   -0.9335    0.9079 C.3       1 <0>        -0.1424
     15 C10         5.5402   -1.6826    2.2407 C.3       1 <0>        -0.1348
     16 C11         4.6984    0.7201    2.7500 C.2       1 <0>         0.5342
     17 O3          3.8544    1.1187    3.5344 O.co2     1 <0>        -0.6815
     18 O4          5.7060    1.3776    2.5525 O.co2     1 <0>        -0.6826
     19 H2          0.1068    1.7957   -0.0459 H         1 <0>         0.0648
     20 H3          0.4862    1.4347   -1.7468 H         1 <0>         0.0661
     21 H4          2.8326    0.9127   -1.0989 H         1 <0>         0.0661
     22 H5          2.3876    2.5798   -0.6592 H         1 <0>         0.0752
     23 H6          3.6078    1.3628    1.1799 H         1 <0>         0.1060
     24 H7          1.9786    1.9030    1.6606 H         1 <0>         0.0692
     25 H8         -0.5611   -0.5220   -0.6588 H         1 <0>         0.0723
     26 H9          1.1262   -0.8822   -1.0987 H         1 <0>         0.0774
     27 H10        -0.7073   -1.9475    2.6990 H         1 <0>         0.3944
     28 H11        -0.2394   -3.5181    2.3288 H         1 <0>         0.3981
     29 H12         5.0944   -1.4729    0.0439 H         1 <0>         0.0837
     30 H13         6.2777   -0.2184    0.6976 H         1 <0>         0.1073
     31 H14         6.3735   -1.4603    2.9073 H         1 <0>         0.0958
     32 H15         5.1902   -2.7148    2.2535 H         1 <0>         0.0940
@<TRIPOS>BOND
     1    1    7 1
     2    1    2 1
     3    1   19 1
     4    1   20 1
     5    2    3 1
     6    2   21 1
     7    2   22 1
     8    3    4 1
     9    3   23 1
    10    3   24 1
    11    4    5 1
    12    4   11 am
    13    5    6 1
    14    5    7 1
    15    5    8 1
    16    7   25 1
    17    7   26 1
    18    8    9 2
    19    8   10 am
    20   10   27 1
    21   10   28 1
    22   11   12 2
    23   11   13 1
    24   13   15 1
    25   13   14 1
    26   13   16 1
    27   14   15 1
    28   14   29 1
    29   14   30 1
    30   15   31 1
    31   15   32 1
    32   16   17 2
    33   16   18 1
@<TRIPOS>MOLECULE
ZINC62136528
   33    33     0     0     0
SMALL
USER_CHARGES

@<TRIPOS>ATOM
      1 C1         -0.0187    1.5258    0.0104 C.3       1 <0>        -0.1608
      2 C2          0.0021   -0.0041    0.0020 C.3       1 <0>         0.1800
      3 C3          0.7421   -0.5109    1.2415 C.3       1 <0>        -0.1520
      4 C4         -1.4117   -0.5257    0.0127 C.2       1 <0>         0.5252
      5 O1         -1.9390   -0.8271    1.0625 O.2       1 <0>        -0.5298
      6 N1         -2.0902   -0.6573   -1.1443 N.am      1 <0>        -0.8530
      7 N2          0.6878   -0.4765   -1.2033 N.am      1 <0>        -0.7460
      8 C5          1.9715   -0.1323   -1.4270 C.2       1 <0>         0.7245
      9 O2          2.5605    0.5704   -0.6285 O.2       1 <0>        -0.5821
     10 N3          2.6023   -0.5669   -2.5359 N.am      1 <0>        -0.6325
     11 C6          2.0103   -1.4128   -3.5825 C.3       1 <0>         0.0966
     12 C7          3.1079   -1.6747   -4.6353 C.3       1 <0>        -0.1030
     13 C8          4.4176   -1.4310   -3.8398 C.3       1 <0>        -0.1667
     14 H1          4.6978   -2.3157   -3.2680 H         1 <0>         0.0767
     15 C9          3.9983   -0.2676   -2.9033 C.3       1 <0>         0.1506
     16 C10         5.5359   -1.0078   -4.7571 C.2       1 <0>         0.5039
     17 O3          6.4191   -0.2757   -4.3441 O.co2     1 <0>        -0.6924
     18 O4          5.5575   -1.3975   -5.9122 O.co2     1 <0>        -0.6933
     19 H2          1.0039    1.9031    0.0027 H         1 <0>         0.0979
     20 H3         -0.5459    1.8868   -0.8726 H         1 <0>         0.0573
     21 H4         -0.5289    1.8773    0.9072 H         1 <0>         0.0689
     22 H5          0.2319   -0.1594    2.1383 H         1 <0>         0.0725
     23 H6          0.7568   -1.6008    1.2356 H         1 <0>         0.0560
     24 H7          1.7647   -0.1336    1.2338 H         1 <0>         0.0915
     25 H8         -1.6686   -0.4162   -1.9840 H         1 <0>         0.4020
     26 H9         -3.0003   -0.9930   -1.1375 H         1 <0>         0.4036
     27 H10         0.2179   -1.0371   -1.8404 H         1 <0>         0.3921
     28 H11         1.6771   -2.3570   -3.1517 H         1 <0>         0.0584
     29 H12         1.1690   -0.8964   -4.0447 H         1 <0>         0.0585
     30 H13         3.0604   -2.7027   -4.9944 H         1 <0>         0.0762
     31 H14         3.0234   -0.9714   -5.4637 H         1 <0>         0.0769
     32 H15         4.0562    0.6854   -3.4292 H         1 <0>         0.0667
     33 H16         4.6292   -0.2504   -2.0146 H         1 <0>         0.0756
@<TRIPOS>BOND
     1    1    2 1
     2    1   19 1
     3    1   20 1
     4    1   21 1
     5    2    3 1
     6    2    4 1
     7    2    7 1
     8    3   22 1
     9    3   23 1
    10    3   24 1
    11    4    5 2
    12    4    6 am
    13    6   25 1
    14    6   26 1
    15    7    8 am
    16    7   27 1
    17    8    9 2
    18    8   10 am
    19   10   15 1
    20   10   11 1
    21   11   12 1
    22   11   28 1
    23   11   29 1
    24   12   13 1
    25   12   30 1
    26   12   31 1
    27   13   14 1
    28   13   15 1
    29   13   16 1
    30   15   32 1
    31   15   33 1
    32   16   17 2
    33   16   18 1
@<TRIPOS>MOLECULE
ZINC00070097
   29    29     0     0     0
SMALL
USER_CHARGES
4-(4-carbamoyl-1-piperidyl)-4-oxo-but-2-enoic acid
@<TRIPOS>ATOM
      1 C1         -0.0215    1.5241    0.0058 C.3       1 <0>        -0.1139
      2 C2          0.0037   -0.0076   -0.0006 C.3       1 <0>         0.1116
      3 N1          0.8242   -0.4717    1.1264 N.am      1 <0>        -0.6167
      4 C3          2.1920    0.0466    1.2650 C.3       1 <0>         0.1058
      5 C4          2.1422    1.5777    1.2572 C.3       1 <0>        -0.1271
      6 C5          1.4142    2.0540   -0.0018 C.3       1 <0>        -0.1082
      7 C6          1.3931    3.5606   -0.0299 C.2       1 <0>         0.5222
      8 O1          0.3344    4.1521   -0.0426 O.2       1 <0>        -0.5420
      9 N2          2.5508    4.2507   -0.0409 N.am      1 <0>        -0.8570
     10 C7          0.3314   -1.3558    2.0163 C.2       1 <0>         0.5542
     11 O2         -0.8308   -1.7044    1.9467 O.2       1 <0>        -0.5466
     12 C8          1.2037   -1.9011    3.0759 C.2       1 <0>        -0.2190
     13 C9          0.7426   -2.8554    3.9000 C.2       1 <0>        -0.0667
     14 C10         1.6139   -3.4001    4.9585 C.2       1 <0>         0.4723
     15 O3          2.7484   -2.9852    5.0845 O.co2     1 <0>        -0.6260
     16 H1         -0.5465    1.8830   -0.8795 H         1 <0>         0.0809
     17 H2         -0.5344    1.8757    0.9010 H         1 <0>         0.0753
     18 H3         -1.0115   -0.3903    0.1045 H         1 <0>         0.0965
     19 H4          0.4349   -0.3621   -0.9369 H         1 <0>         0.0656
     20 H5          2.6207   -0.3003    2.2053 H         1 <0>         0.1024
     21 H6          2.8016   -0.3034    0.4320 H         1 <0>         0.0712
     22 H7          1.6089    1.9288    2.1407 H         1 <0>         0.0763
     23 H8          3.1573    1.9747    1.2633 H         1 <0>         0.0801
     24 H9          1.9340    1.6818   -0.8846 H         1 <0>         0.1007
     25 H10         3.3975    3.7776   -0.0307 H         1 <0>         0.4017
     26 H11         2.5372    5.2204   -0.0590 H         1 <0>         0.3999
     27 H12         2.2125   -1.5322    3.1880 H         1 <0>         0.1357
     28 H13        -0.2663   -3.2244    3.7880 H         1 <0>         0.1190
     29 O4          1.1511   -4.3580    5.7857 O.co2     1 <0>        -0.7483
@<TRIPOS>BOND
     1    1    6 1
     2    1    2 1
     3    1   16 1
     4    1   17 1
     5    2    3 1
     6    2   18 1
     7    2   19 1
     8    3    4 1
     9    3   10 am
    10    4    5 1
    11    4   20 1
    12    4   21 1
    13    5    6 1
    14    5   22 1
    15    5   23 1
    16    6    7 1
    17    6   24 1
    18    7    8 2
    19    7    9 am
    20    9   25 1
    21    9   26 1
    22   10   11 2
    23   10   12 1
    24   12   13 2
    25   12   27 1
    26   13   14 1
    27   13   28 1
    28   14   15 2
    29   14   29 1
@<TRIPOS>MOLECULE
ZINC39329025
   15    16     0     0     0
SMALL
USER_CHARGES

@<TRIPOS>ATOM
      1 C1         -0.0127    1.0858    0.0080 C.3       1 <0>         0.1965
      2 H1          0.0021   -0.0041    0.0020 H         1 <0>         0.1353
      3 C2         -0.5798    1.6365    1.3168 C.2       1 <0>         0.1151
      4 N1          0.4030    2.1806    1.9295 N.2       1 <0>        -0.4687
      5 C3          1.5081    2.2228    1.1480 C.2       1 <0>         0.2643
      6 N2          1.3405    1.6394   -0.0019 N.2       1 <0>        -0.4361
      7 Br1         3.1277    3.0447    1.6748 Br        1 <0>         0.0488
      8 C4         -2.0354    1.5807    1.5569 C.2       1 <0>         0.5332
      9 N3         -2.7462    1.6873    0.4353 N.2       1 <0>        -0.6809
     10 C5         -2.1360    1.8872   -0.7544 C.2       1 <0>         0.6066
     11 N4         -0.8789    1.6148   -1.0476 N.2       1 <0>        -0.6713
     12 N5         -2.9080    2.4106   -1.7718 N.pl3     1 <0>        -0.8316
     13 O1         -2.5868    1.4369    2.7815 O.3       1 <0>        -0.6152
     14 H2         -3.8427    2.6168   -1.6144 H         1 <0>         0.4032
     15 H3         -2.5159    2.5722   -2.6442 H         1 <0>         0.4009
@<TRIPOS>BOND
     1    1    2 1
     2    1    6 1
     3    1   11 1
     4    1    3 1
     5    3    4 2
     6    3    8 1
     7    4    5 1
     8    5    6 2
     9    5    7 1
    10    8    9 2
    11    8   13 1
    12    9   10 1
    13   10   11 2
    14   10   12 1
    15   12   14 1
    16   12   15 1
@<TRIPOS>MOLECULE
ZINC42407325
   36    36     0     0     0
SMALL
USER_CHARGES

@<TRIPOS>ATOM
      1 C1          0.5143    3.2436   -1.3144 C.3       1 <0>        -0.1383
      2 C2         -0.0139    1.8194   -1.1314 C.3       1 <0>         0.1178
      3 C3          0.2532    1.3567    0.3024 C.3       1 <0>        -0.1371
      4 C4         -1.4967    1.7952   -1.3990 C.2       1 <0>         0.5033
      5 O1         -1.9440    1.0936   -2.2901 O.co2     1 <0>        -0.6960
      6 O2         -2.2491    2.4774   -0.7244 O.co2     1 <0>        -0.6835
      7 N1          0.6662    0.9221   -2.0687 N.am      1 <0>        -0.7121
      8 C5          2.0056    0.7819   -2.0160 C.2       1 <0>         0.6971
      9 O3          2.6591    1.4675   -1.2535 O.2       1 <0>        -0.5622
     10 N2          2.6207   -0.1182   -2.8084 N.am      1 <0>        -0.6282
     11 C6          1.8633   -0.8630   -3.8234 C.3       1 <0>         0.1124
     12 C7          2.1071   -2.3616   -3.6194 C.3       1 <0>        -0.1375
     13 C8          3.6127   -2.6357   -3.6318 C.3       1 <0>        -0.1141
     14 C9          4.2806   -1.8769   -2.4829 C.3       1 <0>        -0.1232
     15 C10         4.0626   -0.3687   -2.6778 C.3       1 <0>         0.1502
     16 H1          4.5745   -0.0364   -3.5810 H         1 <0>         0.0783
     17 C11         4.5994    0.3797   -1.4851 C.2       1 <0>         0.5291
     18 O4          4.0552    0.2722   -0.4065 O.2       1 <0>        -0.4975
     19 N3          5.6843    1.1684   -1.6168 N.am      1 <0>        -0.8614
     20 H2          1.5868    3.2611   -1.1208 H         1 <0>         0.0682
     21 H3          0.3240    3.5732   -2.3358 H         1 <0>         0.0382
     22 H4          0.0083    3.9112   -0.6170 H         1 <0>         0.0588
     23 H5         -0.2528    2.0243    0.9998 H         1 <0>         0.0591
     24 H6         -0.1231    0.3421    0.4328 H         1 <0>         0.0387
     25 H7          1.3257    1.3742    0.4959 H         1 <0>         0.0678
     26 H8          0.1525    0.4289   -2.7273 H         1 <0>         0.3985
     27 H9          0.8001   -0.6479   -3.7168 H         1 <0>         0.0890
     28 H10         2.1995   -0.5702   -4.8181 H         1 <0>         0.0661
     29 H11         1.6889   -2.6711   -2.6616 H         1 <0>         0.0703
     30 H12         1.6288   -2.9208   -4.4235 H         1 <0>         0.0757
     31 H13         3.7882   -3.7048   -3.5114 H         1 <0>         0.0673
     32 H14         4.0345   -2.3033   -4.5803 H         1 <0>         0.0642
     33 H15         3.8419   -2.1910   -1.5358 H         1 <0>         0.0774
     34 H16         5.3494   -2.0911   -2.4781 H         1 <0>         0.0733
     35 H17         6.1195    1.2544   -2.4794 H         1 <0>         0.3916
     36 H18         6.0298    1.6502   -0.8491 H         1 <0>         0.3986
@<TRIPOS>BOND
     1    1    2 1
     2    1   20 1
     3    1   21 1
     4    1   22 1
     5    2    3 1
     6    2    4 1
     7    2    7 1
     8    3   23 1
     9    3   24 1
    10    3   25 1
    11    4    5 2
    12    4    6 1
    13    7    8 am
    14    7   26 1
    15    8    9 2
    16    8   10 am
    17   10   15 1
    18   10   11 1
    19   11   12 1
    20   11   27 1
    21   11   28 1
    22   12   13 1
    23   12   29 1
    24   12   30 1
    25   13   14 1
    26   13   31 1
    27   13   32 1
    28   14   15 1
    29   14   33 1
    30   14   34 1
    31   15   16 1
    32   15   17 1
    33   17   18 2
    34   17   19 am
    35   19   35 1
    36   19   36 1
@<TRIPOS>MOLECULE
ZINC50222600
   24    25     0     0     0
SMALL
USER_CHARGES

@<TRIPOS>ATOM
      1 C1         -0.0166    1.3729    0.0096 C.ar      1 <0>        -0.1498
      2 C2          1.1702    2.0890    0.0021 C.ar      1 <0>        -0.0993
      3 C3          2.3839    1.4310   -0.0130 C.ar      1 <0>        -0.1698
      4 C4          2.4235    0.0448   -0.0212 C.ar      1 <0>         0.1542
      5 C5          1.2244   -0.6847   -0.0137 C.ar      1 <0>        -0.0927
      6 C6          0.0021   -0.0041    0.0020 C.ar      1 <0>        -0.0594
      7 C7          1.2527   -2.1556   -0.0228 C.2       1 <0>         0.4642
      8 O1          0.0985   -2.8519   -0.0155 O.3       1 <0>        -0.6148
      9 N1          2.4094   -2.7940   -0.0381 N.2       1 <0>        -0.6444
     10 C8          2.4351   -4.1338   -0.0464 C.2       1 <0>         0.6310
     11 N2          3.5850   -4.8764   -0.0622 N.pl3     1 <0>        -0.7383
     12 C9          3.1533   -6.2862   -0.0658 C.3       1 <0>         0.0114
     13 C10         1.6409   -6.1891   -0.0499 C.2       1 <0>         0.4837
     14 O2          0.8502   -7.1127   -0.0472 O.2       1 <0>        -0.5462
     15 N3          1.3529   -4.8933   -0.0344 N.2       1 <0>        -0.6402
     16 O3          3.6151   -0.6028   -0.0369 O.3       1 <0>        -0.4675
     17 H1         -0.9605    1.8974    0.0259 H         1 <0>         0.1217
     18 H2          1.1453    3.1687    0.0077 H         1 <0>         0.1201
     19 H3          3.3038    1.9967   -0.0187 H         1 <0>         0.1243
     20 H4         -0.9252   -0.5576    0.0082 H         1 <0>         0.1349
     21 H5          3.4966   -6.7909   -0.9689 H         1 <0>         0.0886
     22 H6          3.5148   -6.8011    0.8243 H         1 <0>         0.0888
     23 H7          4.4961   -4.5437   -0.0698 H         1 <0>         0.4138
     24 H8          3.9696   -0.7956    0.8419 H         1 <0>         0.3860
@<TRIPOS>BOND
     1    1    6 ar
     2    1    2 ar
     3    1   17 1
     4    2    3 ar
     5    2   18 1
     6    3    4 ar
     7    3   19 1
     8    4    5 ar
     9    4   16 1
    10    5    6 ar
    11    5    7 1
    12    6   20 1
    13    7    8 1
    14    7    9 2
    15    9   10 1
    16   10   11 1
    17   10   15 2
    18   11   12 1
    19   11   23 1
    20   12   13 1
    21   12   21 1
    22   12   22 1
    23   13   14 2
    24   13   15 1
    25   16   24 1
@<TRIPOS>MOLECULE
ZINC04857954
   32    33     0     0     0
SMALL
USER_CHARGES

@<TRIPOS>ATOM
      1 C1          0.0271    1.4232    0.3506 C.3       1 <0>         0.0819
      2 N1          0.0153   -0.0412    0.3908 N.am      1 <0>        -0.5713
      3 C2         -1.1410   -0.7010    0.1665 C.2       1 <0>         0.5852
      4 O1         -2.1726   -0.0991   -0.0684 O.2       1 <0>        -0.5617
      5 C3         -1.1135   -2.1723    0.2146 C.2       1 <0>        -0.4168
      6 C4         -2.2533   -2.9246   -0.0041 C.2       1 <0>         0.2784
      7 N2         -2.1652   -4.2651   -0.1139 N.pl3     1 <0>        -0.4690
      8 N3         -3.3294   -5.0374   -0.2186 N.am      1 <0>        -0.5331
      9 C5         -3.2413   -6.3777   -0.3285 C.2       1 <0>         0.5552
     10 O2         -2.1518   -6.9166   -0.3368 O.2       1 <0>        -0.5142
     11 C6         -4.4699   -7.1927   -0.4389 C.ar      1 <0>        -0.1230
     12 C7         -5.7223   -6.5766   -0.4355 C.ar      1 <0>        -0.0877
     13 C8         -6.8648   -7.3429   -0.5394 C.ar      1 <0>        -0.1256
     14 C9         -6.7711   -8.7192   -0.6463 C.ar      1 <0>        -0.0930
     15 C10        -5.5327   -9.3362   -0.6498 C.ar      1 <0>        -0.1256
     16 C11        -4.3822   -8.5811   -0.5529 C.ar      1 <0>        -0.0552
     17 C12         0.1873   -2.8079    0.5067 C.2       1 <0>         0.5539
     18 N4          1.2534   -2.0157    0.7083 N.2       1 <0>        -0.6750
     19 C13         1.1689   -0.7105    0.6476 C.2       1 <0>         0.6374
     20 O3          2.2882    0.0094    0.8574 O.3       1 <0>        -0.6679
     21 O4          0.2910   -4.0216    0.5639 O.2       1 <0>        -0.5718
     22 H1          1.0366    1.7839    0.5478 H         1 <0>         0.0967
     23 H2         -0.2940    1.7622   -0.6343 H         1 <0>         0.0554
     24 H3         -0.6525    1.8129    1.1085 H         1 <0>         0.0555
     25 H4         -3.2139   -2.4380   -0.0868 H         1 <0>         0.1579
     26 H5         -1.2957   -4.6951   -0.1206 H         1 <0>         0.4543
     27 H6         -4.1989   -4.6074   -0.2120 H         1 <0>         0.4206
     28 H7         -5.7969   -5.5025   -0.3514 H         1 <0>         0.1268
     29 H8         -7.8346   -6.8675   -0.5369 H         1 <0>         0.1311
     30 H9         -7.6686   -9.3145   -0.7270 H         1 <0>         0.1284
     31 H10        -5.4664  -10.4109   -0.7332 H         1 <0>         0.1322
     32 H11        -3.4159   -9.0635   -0.5607 H         1 <0>         0.1400
@<TRIPOS>BOND
     1    1    2 1
     2    1   22 1
     3    1   23 1
     4    1   24 1
     5    2   19 1
     6    2    3 am
     7    3    4 2
     8    3    5 1
     9    5    6 2
    10    5   17 1
    11    6    7 1
    12    6   25 1
    13    7    8 1
    14    7   26 1
    15    8    9 am
    16    8   27 1
    17    9   10 2
    18    9   11 1
    19   11   16 ar
    20   11   12 ar
    21   12   13 ar
    22   12   28 1
    23   13   14 ar
    24   13   29 1
    25   14   15 ar
    26   14   30 1
    27   15   16 ar
    28   15   31 1
    29   16   32 1
    30   17   18 1
    31   17   21 2
    32   18   19 2
    33   19   20 1
@<TRIPOS>MOLECULE
ZINC31738830
   36    38     0     0     0
SMALL
USER_CHARGES
6-oxo-N-[6-(3-oxopiperazin-1-yl)-3-pyridyl]-1H-pyridazine-3-carboxamide
@<TRIPOS>ATOM
      1 C1          0.8454   -2.0705    0.8746 C.ar      1 <0>        -0.0653
      2 C2          0.8337   -0.6878    0.8941 C.ar      1 <0>        -0.1547
      3 C3          0.0099   -0.0042    0.0063 C.ar      1 <0>         0.2665
      4 N1         -0.7600   -0.6622   -0.8461 N.ar      1 <0>        -0.4955
      5 C4         -0.7702   -1.9806   -0.8956 C.ar      1 <0>         0.0907
      6 C5          0.0252   -2.7285   -0.0405 C.ar      1 <0>         0.1087
      7 N2          0.0044   -4.1283   -0.0954 N.am      1 <0>        -0.6770
      8 C6          0.1898   -4.8496    1.0279 C.2       1 <0>         0.6042
      9 O1          0.2793   -4.2885    2.1027 O.2       1 <0>        -0.5516
     10 C7          0.2842   -6.3232    0.9531 C.ar      1 <0>        -0.1625
     11 C8          0.4790   -7.0788    2.1347 C.ar      1 <0>        -0.0319
     12 C9          0.5607   -8.4353    2.0267 C.ar      1 <0>        -0.2862
     13 C10         0.4458   -9.0048    0.7390 C.ar      1 <0>         0.4371
     14 O2          0.5132  -10.2141    0.5942 O.3       1 <0>        -0.5958
     15 N3          0.2617   -8.2039   -0.3272 N.ar      1 <0>        -0.3997
     16 N4          0.1817   -6.9279   -0.2091 N.ar      1 <0>        -0.1529
     17 N5         -0.0097    1.3878    0.0181 N.pl3     1 <0>        -0.4675
     18 C11        -0.9236    1.9113   -1.0101 C.3       1 <0>         0.0418
     19 C12        -1.1458    3.4035   -0.7558 C.3       1 <0>         0.1159
     20 N6          0.1380    4.0801   -0.5944 N.am      1 <0>        -0.7298
     21 C13         1.2725    3.4296   -0.3154 C.2       1 <0>         0.5273
     22 O3          2.2898    4.0731   -0.1672 O.2       1 <0>        -0.5541
     23 C14         1.3396    1.9349   -0.1774 C.3       1 <0>         0.0382
     24 H1          1.4750   -2.6275    1.5527 H         1 <0>         0.1496
     25 H2          1.4564   -0.1455    1.5903 H         1 <0>         0.1366
     26 H3         -1.4084   -2.4832   -1.6073 H         1 <0>         0.1611
     27 H4         -0.1633   -4.6386   -1.0553 H         1 <0>         0.4483
     28 H5          0.5609   -6.5933    3.0959 H         1 <0>         0.1196
     29 H6          0.7085   -9.0553    2.8985 H         1 <0>         0.1195
     30 H7         -0.4787    1.7643   -2.0053 H         1 <0>         0.0574
     31 H8         -1.8830    1.3761   -0.9547 H         1 <0>         0.1135
     32 H9         -1.6824    3.8449   -1.6086 H         1 <0>         0.0850
     33 H10        -1.7413    3.5348    0.1597 H         1 <0>         0.0750
     34 H11         0.2011    5.1730   -0.7022 H         1 <0>         0.4233
     35 H12         1.9680    1.6791    0.6885 H         1 <0>         0.1221
     36 H13         1.7804    1.5065   -1.0896 H         1 <0>         0.0831
@<TRIPOS>BOND
     1    1    6 ar
     2    1    2 ar
     3    1   24 1
     4    2    3 ar
     5    2   25 1
     6    3    4 ar
     7    3   17 1
     8    4    5 ar
     9    5    6 ar
    10    5   26 1
    11    6    7 1
    12    7    8 am
    13    7   27 1
    14    8    9 2
    15    8   10 1
    16   10   16 ar
    17   10   11 ar
    18   11   12 ar
    19   11   28 1
    20   12   13 ar
    21   12   29 1
    22   13   14 1
    23   13   15 ar
    24   15   16 ar
    25   17   23 1
    26   17   18 1
    27   18   19 1
    28   18   30 1
    29   18   31 1
    30   19   20 1
    31   19   32 1
    32   19   33 1
    33   20   21 am
    34   20   34 1
    35   21   22 2
    36   21   23 1
    37   23   35 1
    38   23   36 1
@<TRIPOS>MOLECULE
ZINC39783564
   24    25     0     0     0
SMALL
USER_CHARGES

@<TRIPOS>ATOM
      1 C1         -0.0187    1.5258    0.0104 C.3       1 <0>        -0.1566
      2 C2          0.0021   -0.0041    0.0020 C.3       1 <0>         0.2022
      3 H1          0.4988   -0.3710   -0.8961 H         1 <0>         0.0924
      4 C3         -1.4057   -0.5498    0.0849 C.2       1 <0>        -0.2748
      5 C4         -1.4882   -1.2717    1.2037 C.2       1 <0>         0.1078
      6 N1         -0.2785   -1.2750    1.8951 N.pl3     1 <0>        -0.5476
      7 N2          0.6783   -0.5137    1.2058 N.pl3     1 <0>        -0.3796
      8 C5          1.9778   -0.2896    1.5767 C.2       1 <0>         0.6633
      9 N3          2.7502    0.4547    0.8107 N.2       1 <0>        -0.6360
     10 H2          1.8567   -1.3748    3.2783 H         1 <0>         0.4383
     11 C6          4.0232    0.6889    1.1512 C.2       1 <0>         0.5076
     12 O1          4.7345    1.3797    0.4380 O.2       1 <0>        -0.5087
     13 C7          4.5561    0.1099    2.3872 C.2       1 <0>         0.0175
     14 N4          3.7712   -0.6240    3.1292 N.2       1 <0>        -0.1826
     15 N5          2.4449   -0.8335    2.7290 N.pl3     1 <0>        -0.5580
     16 C8         -2.7022   -1.9749    1.6507 C.2       1 <0>         0.5447
     17 O2         -3.7238   -1.9184    0.9801 O.co2     1 <0>        -0.6563
     18 O3         -2.6892   -2.6157    2.6929 O.co2     1 <0>        -0.6789
     19 H3          1.0039    1.9031    0.0027 H         1 <0>         0.0768
     20 H4         -0.5459    1.8868   -0.8726 H         1 <0>         0.0746
     21 H5         -0.5289    1.8773    0.9072 H         1 <0>         0.0540
     22 H6         -2.1985   -0.3851   -0.6297 H         1 <0>         0.1652
     23 H7         -0.1200   -1.7372    2.7330 H         1 <0>         0.4301
     24 H8          5.5806    0.2867    2.6793 H         1 <0>         0.2046
@<TRIPOS>BOND
     1    1    2 1
     2    1   19 1
     3    1   20 1
     4    1   21 1
     5    2    3 1
     6    2    7 1
     7    2    4 1
     8    4    5 2
     9    4   22 1
    10    5    6 1
    11    5   16 1
    12    6    7 1
    13    6   23 1
    14    7    8 1
    15    8    9 2
    16    8   15 1
    17    9   11 1
    18   10   15 1
    19   11   12 2
    20   11   13 1
    21   13   14 2
    22   13   24 1
    23   14   15 1
    24   16   17 2
    25   16   18 1
@<TRIPOS>MOLECULE
ZINC44344688
   32    34     0     0     0
SMALL
USER_CHARGES

@<TRIPOS>ATOM
      1 C1          0.8830   -0.9587   -2.3526 C.3       1 <0>        -0.1495
      2 C2         -0.0952    0.2172   -2.3165 C.3       1 <0>         0.2604
      3 H1          0.0792    0.8075   -1.4169 H         1 <0>         0.0975
      4 C3          0.1136    1.0819   -3.5329 C.2       1 <0>         0.0372
      5 N1          0.7138    2.2627   -3.5693 N.2       1 <0>        -0.3746
      6 N2          0.6893    2.6748   -4.7908 N.2       1 <0>        -0.1916
      7 N3          0.0956    1.7942   -5.5187 N.2       1 <0>        -0.1908
      8 N4         -0.2626    0.8052   -4.7730 N.2       1 <0>        -0.3801
      9 N5         -1.4693   -0.2907   -2.3084 N.am      1 <0>        -0.6952
     10 C4         -2.0508   -0.6427   -1.1446 C.2       1 <0>         0.5562
     11 O1         -1.4070   -0.6263   -0.1145 O.2       1 <0>        -0.5290
     12 C5         -3.4768   -1.0502   -1.1216 C.2       1 <0>        -0.0300
     13 C6         -4.1802   -1.1948   -2.2829 C.2       1 <0>        -0.1611
     14 C7         -5.5835   -1.5979   -2.2278 C.2       1 <0>         0.5376
     15 N6         -6.1920   -1.8280   -1.0512 N.am      1 <0>        -0.6286
     16 C8         -5.5170   -1.6931    0.1431 C.ar      1 <0>         0.1808
     17 C9         -4.1629   -1.3135    0.1526 C.ar      1 <0>        -0.1044
     18 C10        -3.4849   -1.1840    1.3681 C.ar      1 <0>        -0.0539
     19 C11        -4.1395   -1.4324    2.5412 C.ar      1 <0>        -0.1555
     20 C12        -5.4744   -1.8130    2.5369 C.ar      1 <0>        -0.0655
     21 C13        -6.1655   -1.9361    1.3512 C.ar      1 <0>        -0.1712
     22 O2         -6.2118   -1.7272   -3.2634 O.2       1 <0>        -0.5252
     23 H2          1.9053   -0.5808   -2.3586 H         1 <0>         0.0657
     24 H3          0.7319   -1.5841   -1.4728 H         1 <0>         0.0602
     25 H4          0.7085   -1.5489   -3.2523 H         1 <0>         0.0598
     26 H5         -1.9606   -0.3736   -3.1407 H         1 <0>         0.4082
     27 H6         -3.7032   -1.0123   -3.2345 H         1 <0>         0.1631
     28 H7         -2.4461   -0.8886    1.3798 H         1 <0>         0.1730
     29 H8         -3.6141   -1.3322    3.4795 H         1 <0>         0.1294
     30 H9         -5.9784   -2.0064    3.4723 H         1 <0>         0.1294
     31 H10        -7.2040   -2.2324    1.3581 H         1 <0>         0.1322
     32 H11        -7.1247   -2.0939   -1.0425 H         1 <0>         0.4155
@<TRIPOS>BOND
     1    1    2 1
     2    1   23 1
     3    1   24 1
     4    1   25 1
     5    2    3 1
     6    2    4 1
     7    2    9 1
     8    4    5 1
     9    4    8 2
    10    5    6 1
    11    6    7 2
    12    7    8 1
    13    9   10 am
    14    9   26 1
    15   10   11 2
    16   10   12 1
    17   12   17 1
    18   12   13 2
    19   13   14 1
    20   13   27 1
    21   14   15 am
    22   14   22 2
    23   15   16 1
    24   15   32 1
    25   16   21 ar
    26   16   17 ar
    27   17   18 ar
    28   18   19 ar
    29   18   28 1
    30   19   20 ar
    31   19   29 1
    32   20   21 ar
    33   20   30 1
    34   21   31 1
@<TRIPOS>MOLECULE
ZINC50398429
   37    38     0     0     0
SMALL
USER_CHARGES

@<TRIPOS>ATOM
      1 C1         -0.2317    1.1394    0.6587 C.3       1 <0>        -0.1340
      2 C2          1.1788    1.7196    0.4992 C.3       1 <0>        -0.1291
      3 C3          1.9744    1.4135    1.7705 C.3       1 <0>         0.1570
      4 H1          1.5981    2.0264    2.5896 H         1 <0>         0.1198
      5 C4          1.8300   -0.0383    2.1266 C.2       1 <0>         0.4976
      6 O1          2.6325   -0.5232    2.8958 O.2       1 <0>        -0.5204
      7 N1          0.8662   -0.8226    1.6426 N.am      1 <0>        -0.7268
      8 C5         -0.1343   -0.3866    0.6765 C.3       1 <0>         0.1103
      9 N2          3.3893    1.7189    1.5444 N.am      1 <0>        -0.7351
     10 C6          4.1889    2.0189    2.5871 C.2       1 <0>         0.7250
     11 O2          3.7360    2.0361    3.7153 O.2       1 <0>        -0.5665
     12 N3          5.4906    2.2999    2.3791 N.am      1 <0>        -0.6320
     13 C7          6.1910    2.2181    1.0844 C.3       1 <0>         0.1005
     14 C8          7.6824    2.0184    1.4524 C.3       1 <0>        -0.1356
     15 C9          7.8149    2.9135    2.7128 C.3       1 <0>        -0.1061
     16 C10         6.4456    2.7448    3.4045 C.3       1 <0>         0.1778
     17 H2          6.5200    1.9949    4.1920 H         1 <0>         0.0761
     18 C11         5.9900    4.0806    3.9953 C.3       1 <0>        -0.1904
     19 C12         6.8904    4.4549    5.1443 C.2       1 <0>         0.4976
     20 O3          7.8571    3.7618    5.4121 O.co2     1 <0>        -0.6964
     21 O4          6.6523    5.4508    5.8060 O.co2     1 <0>        -0.7061
     22 H3         -0.6672    1.4889    1.5948 H         1 <0>         0.0780
     23 H4         -0.8543    1.4564   -0.1779 H         1 <0>         0.0904
     24 H5          1.6690    1.2615   -0.3598 H         1 <0>         0.0753
     25 H6          1.1177    2.7983    0.3553 H         1 <0>         0.0862
     26 H7          0.8288   -1.7409    1.9527 H         1 <0>         0.3969
     27 H8         -1.1031   -0.8063    0.9471 H         1 <0>         0.0763
     28 H9          0.1441   -0.7414   -0.3159 H         1 <0>         0.0641
     29 H10         3.7506    1.7052    0.6443 H         1 <0>         0.3942
     30 H11         5.8253    1.3682    0.5083 H         1 <0>         0.0620
     31 H12         6.0594    3.1430    0.5229 H         1 <0>         0.0616
     32 H13         7.8898    0.9751    1.6905 H         1 <0>         0.0719
     33 H14         8.3329    2.3716    0.6523 H         1 <0>         0.0772
     34 H15         8.6205    2.5580    3.3553 H         1 <0>         0.0921
     35 H16         7.9752    3.9543    2.4315 H         1 <0>         0.0683
     36 H17         6.0398    4.8531    3.2280 H         1 <0>         0.0531
     37 H18         4.9642    3.9889    4.3525 H         1 <0>         0.0693
@<TRIPOS>BOND
     1    1    8 1
     2    1    2 1
     3    1   22 1
     4    1   23 1
     5    2    3 1
     6    2   24 1
     7    2   25 1
     8    3    4 1
     9    3    5 1
    10    3    9 1
    11    5    6 2
    12    5    7 am
    13    7    8 1
    14    7   26 1
    15    8   27 1
    16    8   28 1
    17    9   10 am
    18    9   29 1
    19   10   11 2
    20   10   12 am
    21   12   16 1
    22   12   13 1
    23   13   14 1
    24   13   30 1
    25   13   31 1
    26   14   15 1
    27   14   32 1
    28   14   33 1
    29   15   16 1
    30   15   34 1
    31   15   35 1
    32   16   17 1
    33   16   18 1
    34   18   19 1
    35   18   36 1
    36   18   37 1
    37   19   20 2
    38   19   21 1
@<TRIPOS>MOLECULE
ZINC62100930
   33    33     0     0     0
SMALL
USER_CHARGES

@<TRIPOS>ATOM
      1 C1         -2.4465   -1.0394   -0.3675 C.3       1 <0>        -0.1608
      2 C2         -1.9928    0.1628   -1.1980 C.3       1 <0>         0.1777
      3 H1         -1.3112    0.7755   -0.6080 H         1 <0>         0.0887
      4 C3         -3.2122    0.9962   -1.5972 C.3       1 <0>        -0.1970
      5 C4         -2.7566    2.2439   -2.3092 C.2       1 <0>         0.4876
      6 O1         -1.5669    2.4475   -2.4814 O.co2     1 <0>        -0.6839
      7 O2         -3.5777    3.0496   -2.7131 O.co2     1 <0>        -0.7086
      8 N1         -1.3069   -0.3078   -2.4040 N.am      1 <0>        -0.7104
      9 C5          0.0062   -0.6081   -2.3585 C.2       1 <0>         0.7104
     10 O3          0.6424   -0.4014   -1.3432 O.2       1 <0>        -0.5917
     11 N2          0.6141   -1.1377   -3.4386 N.am      1 <0>        -0.6360
     12 C6          2.0074   -1.5637   -3.3222 C.3       1 <0>         0.1406
     13 C7          2.8817   -0.7163   -4.2538 C.3       1 <0>        -0.1587
     14 C8          2.7581   -1.2602   -5.6590 C.2       1 <0>         0.5204
     15 O4          3.6922   -1.8486   -6.1613 O.2       1 <0>        -0.5571
     16 N3          1.6267   -1.0976   -6.3513 N.am      1 <0>        -0.7236
     17 C9          0.4859   -0.3822   -5.7636 C.3       1 <0>         0.0876
     18 C10        -0.1467   -1.2692   -4.6786 C.3       1 <0>         0.0949
     19 H2         -3.1281   -1.6522   -0.9574 H         1 <0>         0.0482
     20 H3         -1.5778   -1.6332   -0.0831 H         1 <0>         0.0523
     21 H4         -2.9569   -0.6893    0.5298 H         1 <0>         0.0601
     22 H5         -3.8503    0.4120   -2.2602 H         1 <0>         0.0592
     23 H6         -3.7723    1.2718   -0.7037 H         1 <0>         0.0727
     24 H7         -1.7978   -0.4032   -3.2351 H         1 <0>         0.3881
     25 H8          2.3419   -1.4344   -2.2929 H         1 <0>         0.1099
     26 H9          2.0906   -2.6139   -3.6018 H         1 <0>         0.0661
     27 H10         2.5432    0.3196   -4.2313 H         1 <0>         0.0988
     28 H11         3.9212   -0.7712   -3.9303 H         1 <0>         0.1069
     29 H12         1.5581   -1.4549   -7.2505 H         1 <0>         0.3989
     30 H13         0.8300    0.5521   -5.3200 H         1 <0>         0.0899
     31 H14        -0.2513   -0.1712   -6.5383 H         1 <0>         0.0997
     32 H15        -0.1334   -2.3096   -5.0035 H         1 <0>         0.0748
     33 H16        -1.1768   -0.9569   -4.5068 H         1 <0>         0.0945
@<TRIPOS>BOND
     1    1    2 1
     2    1   19 1
     3    1   20 1
     4    1   21 1
     5    2    3 1
     6    2    4 1
     7    2    8 1
     8    4    5 1
     9    4   22 1
    10    4   23 1
    11    5    6 2
    12    5    7 1
    13    8    9 am
    14    8   24 1
    15    9   10 2
    16    9   11 am
    17   11   18 1
    18   11   12 1
    19   12   13 1
    20   12   25 1
    21   12   26 1
    22   13   14 1
    23   13   27 1
    24   13   28 1
    25   14   15 2
    26   14   16 am
    27   16   17 1
    28   16   29 1
    29   17   18 1
    30   17   30 1
    31   17   31 1
    32   18   32 1
    33   18   33 1
@<TRIPOS>MOLECULE
ZINC06008413
   28    29     0     0     0
SMALL
USER_CHARGES
4,5-dimethyl-2-[N'-(2,4,6-trioxohexahydropyrimidin-5-ylidene)hydrazino]thiophene-3-carbonitrile
@<TRIPOS>ATOM
      1 C1         -3.1294   10.5657   -0.4469 C.3       1 <0>        -0.1027
      2 C2         -2.0132    9.5592   -0.3376 C.2       1 <0>        -0.0612
      3 C3         -0.7259    9.9567   -0.3197 C.2       1 <0>        -0.1836
      4 S1          0.1725    8.4243   -0.1736 S.3       1 <0>         0.1464
      5 C4         -1.2049    7.2920   -0.1507 C.2       1 <0>         0.1745
      6 C5         -2.2976    8.1508   -0.2494 C.2       1 <0>        -0.1463
      7 C6         -3.6411    7.6555   -0.2629 C.1       1 <0>         0.2724
      8 N1         -4.7069    7.2625   -0.2736 N.1       1 <0>        -0.4280
      9 N2         -1.1920    5.9127   -0.0536 N.pl3     1 <0>        -0.4649
     10 N3         -0.0696    5.2825    0.0301 N.2       1 <0>        -0.1063
     11 C7         -0.0586    3.9781    0.2335 C.2       1 <0>        -0.0836
     12 C8          1.1861    3.1916    0.1265 C.2       1 <0>         0.5600
     13 O1          2.2418    3.7274   -0.1530 O.3       1 <0>        -0.5317
     14 N4          1.1205    1.8625    0.3476 N.2       1 <0>        -0.6869
     15 C9         -0.0357    1.2594    0.6571 C.2       1 <0>         0.6626
     16 O2         -0.0256    0.0586    0.8440 O.2       1 <0>        -0.5813
     17 N5         -1.2034    1.9081    0.7664 N.am      1 <0>        -0.6887
     18 C10        -1.2905    3.2410    0.5777 C.2       1 <0>         0.5551
     19 O3         -2.3555    3.8191    0.6843 O.2       1 <0>        -0.5543
     20 C11        -0.1784   11.3586   -0.3977 C.3       1 <0>        -0.0643
     21 H1         -2.7052   11.5791   -0.5027 H         1 <0>         0.0749
     22 H2         -3.7803   10.4888    0.4365 H         1 <0>         0.0693
     23 H3         -3.7175   10.3639   -1.3543 H         1 <0>         0.0693
     24 H4         -2.1389    5.3529   -0.0477 H         1 <0>         0.4429
     25 H5         -2.1198    1.3529    1.0153 H         1 <0>         0.4233
     26 H6          0.9203   11.3259   -0.3566 H         1 <0>         0.0741
     27 H7         -0.5596   11.9487    0.4487 H         1 <0>         0.0791
     28 H8         -0.4963   11.8244   -1.3422 H         1 <0>         0.0794
@<TRIPOS>BOND
     1    1    2 1
     2    1   21 1
     3    1   22 1
     4    1   23 1
     5    2    6 1
     6    2    3 2
     7    3    4 1
     8    3   20 1
     9    4    5 1
    10    5    6 2
    11    5    9 1
    12    6    7 1
    13    7    8 3
    14    9   10 1
    15    9   24 1
    16   10   11 2
    17   11   18 1
    18   11   12 1
    19   12   13 1
    20   12   14 2
    21   14   15 1
    22   15   16 2
    23   15   17 am
    24   17   18 am
    25   17   25 1
    26   18   19 2
    27   20   26 1
    28   20   27 1
    29   20   28 1
@<TRIPOS>MOLECULE
ZINC06243427
   28    29     0     0     0
SMALL
USER_CHARGES

@<TRIPOS>ATOM
      1 C1         -0.0097    1.3807    0.0134 C.ar      1 <0>        -0.1386
      2 C2          1.1783    2.0880    0.0124 C.ar      1 <0>        -0.0854
      3 C3          2.3856    1.4116    0.0066 C.ar      1 <0>         0.0517
      4 C4          2.4034    0.0169    0.0013 C.ar      1 <0>         0.1109
      5 C5          1.2145   -0.6914    0.0028 C.ar      1 <0>        -0.1273
      6 C6          0.0045   -0.0081    0.0087 C.ar      1 <0>         0.1691
      7 N1         -1.1999   -0.7195    0.0104 N.am      1 <0>        -0.6733
      8 C7         -1.2969   -1.8821   -0.6643 C.2       1 <0>         0.5515
      9 O1         -0.3160   -2.3550   -1.2043 O.2       1 <0>        -0.5321
     10 C8         -2.5958   -2.5821   -0.7476 C.2       1 <0>        -0.2211
     11 C9         -2.6924   -3.7409   -1.4202 C.2       1 <0>        -0.0818
     12 C10        -3.9877   -4.4388   -1.5032 C.2       1 <0>         0.5029
     13 O2         -4.9746   -3.9631   -0.9599 O.co2     1 <0>        -0.6798
     14 O3         -4.0756   -5.4938   -2.1155 O.co2     1 <0>        -0.6793
     15 N2          3.6352   -0.6529   -0.0066 N.am      1 <0>        -0.6560
     16 C11         4.7557    0.0332    0.3068 C.2       1 <0>         0.4907
     17 O4          5.8357   -0.5181    0.2767 O.2       1 <0>        -0.5156
     18 C12         4.6588    1.4870    0.6937 C.3       1 <0>         0.0514
     19 O5          3.5622    2.0951    0.0064 O.3       1 <0>        -0.3023
     20 H1         -0.9513    1.9097    0.0224 H         1 <0>         0.1396
     21 H2          1.1642    3.1679    0.0159 H         1 <0>         0.1432
     22 H3          1.2271   -1.7713   -0.0009 H         1 <0>         0.1524
     23 H4         -1.9653   -0.3760    0.4973 H         1 <0>         0.4164
     24 H5         -3.4673   -2.1619   -0.2678 H         1 <0>         0.1375
     25 H6         -1.8208   -4.1610   -1.9000 H         1 <0>         0.1141
     26 H7          3.6820   -1.5947   -0.2341 H         1 <0>         0.4187
     27 H8          4.5018    1.5665    1.7694 H         1 <0>         0.0987
     28 H9          5.5837    1.9968    0.4238 H         1 <0>         0.1441
@<TRIPOS>BOND
     1    1    6 ar
     2    1    2 ar
     3    1   20 1
     4    2    3 ar
     5    2   21 1
     6    3   19 1
     7    3    4 ar
     8    4    5 ar
     9    4   15 1
    10    5    6 ar
    11    5   22 1
    12    6    7 1
    13    7    8 am
    14    7   23 1
    15    8    9 2
    16    8   10 1
    17   10   11 2
    18   10   24 1
    19   11   12 1
    20   11   25 1
    21   12   13 2
    22   12   14 1
    23   15   16 am
    24   15   26 1
    25   16   17 2
    26   16   18 1
    27   18   19 1
    28   18   27 1
    29   18   28 1
@<TRIPOS>MOLECULE
ZINC42575461
   36    36     0     0     0
SMALL
USER_CHARGES

@<TRIPOS>ATOM
      1 C1         -0.0236    1.5220    0.0088 C.3       1 <0>        -0.1598
      2 C2          0.0022   -0.0078    0.0040 C.3       1 <0>         0.1459
      3 H1          0.5320   -0.3651    0.8870 H         1 <0>         0.1140
      4 C3         -1.4099   -0.5340    0.0183 C.2       1 <0>         0.5117
      5 O1         -1.8049   -1.2352   -0.8891 O.2       1 <0>        -0.5337
      6 N1         -2.2337   -0.2255    1.0393 N.am      1 <0>        -0.7318
      7 C4         -3.6065   -0.7370    1.0532 C.3       1 <0>         0.0874
      8 N2          0.6875   -0.4809   -1.2013 N.am      1 <0>        -0.7366
      9 C5          2.0310   -0.5870   -1.2149 C.2       1 <0>         0.7094
     10 O2          2.6806   -0.2054   -0.2606 O.2       1 <0>        -0.5909
     11 N3          2.6544   -1.1160   -2.2864 N.am      1 <0>        -0.6201
     12 C6          1.8964   -1.4702   -3.4941 C.3       1 <0>         0.1137
     13 C7          2.5453   -0.7865   -4.7017 C.3       1 <0>        -0.1342
     14 C8          4.0284   -1.1599   -4.7583 C.3       1 <0>        -0.0950
     15 C9          4.7290   -0.6672   -3.4901 C.3       1 <0>        -0.1665
     16 H2          4.6089    0.4128   -3.4043 H         1 <0>         0.0629
     17 C10         4.1058   -1.3439   -2.2710 C.3       1 <0>         0.1507
     18 C11         6.1956   -1.0061   -3.5616 C.2       1 <0>         0.5005
     19 O3          7.0262   -0.2062   -3.1657 O.co2     1 <0>        -0.6972
     20 O4          6.5516   -2.0802   -4.0155 O.co2     1 <0>        -0.6946
     21 H3          0.9978    1.9026   -0.0015 H         1 <0>         0.0804
     22 H4         -0.5534    1.8792   -0.8742 H         1 <0>         0.0610
     23 H5         -0.5334    1.8739    0.9056 H         1 <0>         0.0669
     24 H6         -1.9178    0.3353    1.7650 H         1 <0>         0.4048
     25 H7         -4.1163   -0.3851    1.9500 H         1 <0>         0.0765
     26 H8         -4.1363   -0.3798    0.1701 H         1 <0>         0.0604
     27 H9         -3.5881   -1.8269    1.0497 H         1 <0>         0.0604
     28 H10         0.1742   -0.7178   -1.9896 H         1 <0>         0.4032
     29 H11         1.9144   -2.5512   -3.6330 H         1 <0>         0.0693
     30 H12         0.8659   -1.1300   -3.3917 H         1 <0>         0.0698
     31 H13         2.0518   -1.1170   -5.6156 H         1 <0>         0.0688
     32 H14         2.4458    0.2946   -4.6045 H         1 <0>         0.0609
     33 H15         4.1276   -2.2430   -4.8305 H         1 <0>         0.0690
     34 H16         4.4870   -0.6944   -5.6307 H         1 <0>         0.0566
     35 H17         4.5325   -0.9204   -1.3618 H         1 <0>         0.0894
     36 H18         4.3080   -2.4144   -2.3079 H         1 <0>         0.0668
@<TRIPOS>BOND
     1    1    2 1
     2    1   21 1
     3    1   22 1
     4    1   23 1
     5    2    3 1
     6    2    4 1
     7    2    8 1
     8    4    5 2
     9    4    6 am
    10    6    7 1
    11    6   24 1
    12    7   25 1
    13    7   26 1
    14    7   27 1
    15    8    9 am
    16    8   28 1
    17    9   10 2
    18    9   11 am
    19   11   17 1
    20   11   12 1
    21   12   13 1
    22   12   29 1
    23   12   30 1
    24   13   14 1
    25   13   31 1
    26   13   32 1
    27   14   15 1
    28   14   33 1
    29   14   34 1
    30   15   16 1
    31   15   17 1
    32   15   18 1
    33   17   35 1
    34   17   36 1
    35   18   19 2
    36   18   20 1
@<TRIPOS>MOLECULE
ZINC50396530
   32    34     0     0     0
SMALL
USER_CHARGES

@<TRIPOS>ATOM
      1 C1         -0.0169    1.3955    0.0097 C.ar      1 <0>        -0.0681
      2 C2          1.1535    2.1002    0.0023 C.ar      1 <0>        -0.1218
      3 C3          2.3717    1.4316   -0.0129 C.ar      1 <0>         0.0834
      4 C4          2.4041    0.0322   -0.0208 C.ar      1 <0>         0.0711
      5 C5          1.2233   -0.6851   -0.0140 C.ar      1 <0>        -0.0671
      6 C6          0.0021   -0.0041    0.0020 C.ar      1 <0>        -0.1202
      7 C7         -1.2626   -0.7585    0.0103 C.2       1 <0>         0.5235
      8 O1         -2.3306   -0.1620    0.0239 O.co2     1 <0>        -0.6835
      9 O2         -1.2452   -1.9817    0.0036 O.co2     1 <0>        -0.6852
     10 N1          3.7475   -0.3382   -0.0356 N.am      1 <0>        -0.6399
     11 H1          4.0866   -1.2470   -0.0440 H         1 <0>         0.4321
     12 C8          4.4936    0.7826   -0.0367 C.2       1 <0>         0.6853
     13 O3          5.7099    0.8142   -0.0488 O.2       1 <0>        -0.5696
     14 N2          3.6907    1.8628   -0.0232 N.am      1 <0>        -0.5209
     15 C9          4.1346    3.2589   -0.0207 C.3       1 <0>         0.1576
     16 H2          3.2646    3.9155   -0.0094 H         1 <0>         0.1286
     17 C10         4.9613    3.5319   -1.2797 C.3       1 <0>        -0.1413
     18 C11         5.6404    4.8983   -1.1268 C.3       1 <0>        -0.1314
     19 C12         6.6830    4.8049   -0.0120 C.3       1 <0>         0.1081
     20 N3          6.0942    4.2279    1.1901 N.am      1 <0>        -0.7133
     21 C13         4.9687    3.5150    1.2017 C.2       1 <0>         0.5140
     22 O4          4.5970    3.0493    2.2580 O.2       1 <0>        -0.5346
     23 H3         -0.9606    1.9204    0.0261 H         1 <0>         0.1391
     24 H4          1.1319    3.1800    0.0080 H         1 <0>         0.1212
     25 H5          1.2434   -1.7649   -0.0207 H         1 <0>         0.1369
     26 H6          5.7186    2.7568   -1.3966 H         1 <0>         0.0918
     27 H7          4.3083    3.5423   -2.1524 H         1 <0>         0.0853
     28 H8          6.1288    5.1707   -2.0624 H         1 <0>         0.0928
     29 H9          4.8949    5.6503   -0.8682 H         1 <0>         0.0763
     30 H10         7.5106    4.1782   -0.3443 H         1 <0>         0.0691
     31 H11         7.0589    5.8027    0.2143 H         1 <0>         0.0793
     32 H12         6.5512    4.3707    2.0337 H         1 <0>         0.4013
@<TRIPOS>BOND
     1    1    6 ar
     2    1    2 ar
     3    1   23 1
     4    2    3 ar
     5    2   24 1
     6    3   14 1
     7    3    4 ar
     8    4    5 ar
     9    4   10 1
    10    5    6 ar
    11    5   25 1
    12    6    7 1
    13    7    8 2
    14    7    9 1
    15   10   11 1
    16   10   12 am
    17   12   13 2
    18   12   14 am
    19   14   15 1
    20   15   16 1
    21   15   21 1
    22   15   17 1
    23   17   18 1
    24   17   26 1
    25   17   27 1
    26   18   19 1
    27   18   28 1
    28   18   29 1
    29   19   20 1
    30   19   30 1
    31   19   31 1
    32   20   21 am
    33   20   32 1
    34   21   22 2
@<TRIPOS>MOLECULE
ZINC47403257
   30    32     0     0     0
SMALL
USER_CHARGES

@<TRIPOS>ATOM
      1 C1         -0.0163    1.3513    0.0095 C.2       1 <0>        -0.1605
      2 C2          1.1833    2.0380    0.0017 C.2       1 <0>        -0.1366
      3 C3          2.3426    1.3358   -0.0131 C.2       1 <0>        -0.1652
      4 S1          1.7535   -0.3495   -0.0166 S.3       1 <0>         0.0504
      5 C4          0.0021   -0.0041    0.0020 C.2       1 <0>        -0.1699
      6 C5          3.7608    1.8454   -0.0244 C.3       1 <0>         0.2086
      7 N1          4.2338    2.0036    1.3531 N.am      1 <0>        -0.7325
      8 C6          5.4831    2.4504    1.5895 C.2       1 <0>         0.5832
      9 O1          6.2177    2.7223    0.6595 O.2       1 <0>        -0.5481
     10 C7          5.9595    2.6097    2.9770 C.ar      1 <0>        -0.3032
     11 C8          7.2533    3.0786    3.2316 C.ar      1 <0>         0.0966
     12 C9          7.6469    3.2089    4.5587 C.ar      1 <0>        -0.3312
     13 C10         6.7436    2.8695    5.5957 C.ar      1 <0>         0.4456
     14 N2          7.1447    3.0025    6.8733 N.2       1 <0>        -0.6062
     15 C11         8.3412    3.4350    7.1793 C.2       1 <0>         0.6304
     16 O2          8.6695    3.5412    8.4832 O.3       1 <0>        -0.6502
     17 N3          9.2712    3.7826    6.2485 N.am      1 <0>        -0.6697
     18 H1         10.1438    4.0971    6.5324 H         1 <0>         0.4061
     19 C12         8.9846    3.6922    4.9285 C.2       1 <0>         0.5694
     20 O3          9.8029    3.9983    4.0813 O.2       1 <0>        -0.5433
     21 N4          5.5224    2.4274    5.2976 N.ar      1 <0>        -0.5144
     22 C13         5.1199    2.2988    4.0544 C.ar      1 <0>         0.2147
     23 H2         -0.9542    1.8866    0.0258 H         1 <0>         0.1345
     24 H3          1.1967    3.1179    0.0070 H         1 <0>         0.1362
     25 H4         -0.8275   -0.6955    0.0065 H         1 <0>         0.1856
     26 H5          4.3986    1.1333   -0.5480 H         1 <0>         0.0829
     27 H6          3.7967    2.8084   -0.5337 H         1 <0>         0.0909
     28 H7          3.6478    1.7867    2.0951 H         1 <0>         0.4015
     29 H8          7.9241    3.3307    2.4236 H         1 <0>         0.1443
     30 H9          4.1200    1.9412    3.8579 H         1 <0>         0.1502
@<TRIPOS>BOND
     1    1    5 2
     2    1    2 1
     3    1   23 1
     4    2    3 2
     5    2   24 1
     6    3    4 1
     7    3    6 1
     8    4    5 1
     9    5   25 1
    10    6    7 1
    11    6   26 1
    12    6   27 1
    13    7    8 am
    14    7   28 1
    15    8    9 2
    16    8   10 1
    17   10   22 ar
    18   10   11 ar
    19   11   12 ar
    20   11   29 1
    21   12   19 1
    22   12   13 ar
    23   13   14 1
    24   13   21 ar
    25   14   15 2
    26   15   16 1
    27   15   17 1
    28   17   18 1
    29   17   19 am
    30   19   20 2
    31   21   22 ar
    32   22   30 1
@<TRIPOS>MOLECULE
ZINC13581980
   27    27     0     0     0
SMALL
USER_CHARGES
N-allyl-4-methyl-2,6-dioxo-3H-pyrimidine-5-sulfonamide
@<TRIPOS>ATOM
      1 C1          2.6887   -2.6951   -0.9935 C.3       1 <0>        -0.1579
      2 C2          3.0221   -1.3459   -1.5764 C.2       1 <0>         0.3510
      3 C3          2.0349   -0.5241   -1.9924 C.2       1 <0>        -0.8682
      4 C4          2.3728    0.7410   -2.5307 C.2       1 <0>         0.5863
      5 O1          1.4996    1.5013   -2.9083 O.2       1 <0>        -0.4771
      6 N1          3.6704    1.0960   -2.6219 N.am      1 <0>        -0.6592
      7 H1          3.9173    1.9877   -3.0013 H         1 <0>         0.4441
      8 C5          4.6347    0.2550   -2.2043 C.2       1 <0>         0.7047
      9 O2          5.8006    0.5888   -2.2923 O.2       1 <0>        -0.5229
     10 N2          4.3268   -0.9497   -1.6905 N.am      1 <0>        -0.6319
     11 H2          5.0583   -1.5613   -1.3892 H         1 <0>         0.4486
     12 S1          0.3483   -1.0165   -1.8604 S.o2      1 <0>         2.7207
     13 O3          0.3340   -2.4363   -1.9173 O.2       1 <0>        -0.9570
     14 O4         -0.3830   -0.2101   -2.7737 O.2       1 <0>        -0.9230
     15 N3         -0.1665   -0.5985   -0.3429 N.pl3     1 <0>        -1.1136
     16 C6         -0.2395    0.8129    0.0429 C.3       1 <0>         0.1452
     17 C7         -1.0643    0.9489    1.2968 C.2       1 <0>        -0.1687
     18 C8         -0.5645    1.5509    2.3475 C.2       1 <0>        -0.1683
     19 H3          2.5547   -3.4162   -1.7998 H         1 <0>         0.1333
     20 H4          3.5019   -3.0218   -0.3453 H         1 <0>         0.0986
     21 H5          1.7685   -2.6231   -0.4137 H         1 <0>         0.1122
     22 H6         -0.4197   -1.2882    0.2905 H         1 <0>         0.4192
     23 H7          0.7659    1.1919    0.2265 H         1 <0>         0.0647
     24 H8         -0.7027    1.3857   -0.7605 H         1 <0>         0.0957
     25 H9         -2.0674    0.5499    1.3293 H         1 <0>         0.1198
     26 H10         0.4386    1.9499    2.3150 H         1 <0>         0.0987
     27 H11        -1.1556    1.6484    3.2461 H         1 <0>         0.1050
@<TRIPOS>BOND
     1    1    2 1
     2    1   19 1
     3    1   20 1
     4    1   21 1
     5    2   10 1
     6    2    3 2
     7    3    4 1
     8    3   12 1
     9    4    5 2
    10    4    6 am
    11    6    7 1
    12    6    8 am
    13    8    9 2
    14    8   10 am
    15   10   11 1
    16   12   13 2
    17   12   14 2
    18   12   15 1
    19   15   16 1
    20   15   22 1
    21   16   17 1
    22   16   23 1
    23   16   24 1
    24   17   18 2
    25   17   25 1
    26   18   26 1
    27   18   27 1
@<TRIPOS>MOLECULE
ZINC40378273
   33    33     0     0     0
SMALL
USER_CHARGES

@<TRIPOS>ATOM
      1 C1         -0.0184    1.5028    0.0103 C.3       1 <0>        -0.0783
      2 C2          0.0021   -0.0041    0.0020 C.2       1 <0>         0.1159
      3 C3          0.0081   -0.8280   -1.1457 C.2       1 <0>        -0.2939
      4 C4          0.0284   -2.1369   -0.7077 C.2       1 <0>         0.1314
      5 N1          0.0343   -2.1114    0.6347 N.pl3     1 <0>        -0.3593
      6 N2          0.0230   -0.7762    1.0532 N.2       1 <0>        -0.2938
      7 C5          0.0548   -3.2837    1.5130 C.3       1 <0>         0.0950
      8 C6          0.0409   -3.3682   -1.5765 C.3       1 <0>        -0.0996
      9 C7         -0.0048   -0.3747   -2.5486 C.2       1 <0>         0.6025
     10 O1          1.0429   -0.1736   -3.1322 O.2       1 <0>        -0.5240
     11 N3         -1.1778   -0.1833   -3.1841 N.am      1 <0>        -0.7205
     12 C8         -1.1906    0.2672   -4.5781 C.3       1 <0>         0.1313
     13 C9         -2.6374    0.4045   -5.0564 C.3       1 <0>        -0.6475
     14 S1         -2.6533    0.9623   -6.7824 S.o2      1 <0>         2.6267
     15 O2         -2.1663    2.2943   -6.8709 O.2       1 <0>        -0.9534
     16 O3         -2.1383   -0.0551   -7.6303 O.2       1 <0>        -0.9541
     17 N4         -4.2573    1.0716   -7.1796 N.pl3     1 <0>        -1.2495
     18 H1          1.0042    1.8801    0.0026 H         1 <0>         0.0844
     19 H2         -0.5455    1.8639   -0.8728 H         1 <0>         0.0766
     20 H3         -0.5286    1.8543    0.9071 H         1 <0>         0.0800
     21 H4          1.0874   -3.5602    1.7260 H         1 <0>         0.0808
     22 H5         -0.4580   -3.0480    2.4455 H         1 <0>         0.0950
     23 H6         -0.4499   -4.1152    1.0210 H         1 <0>         0.0911
     24 H7          1.0715   -3.6509   -1.7912 H         1 <0>         0.0908
     25 H8         -0.4591   -4.1852   -1.0562 H         1 <0>         0.0792
     26 H9         -0.4806   -3.1592   -2.5105 H         1 <0>         0.0867
     27 H10        -2.0135   -0.3437   -2.7186 H         1 <0>         0.4054
     28 H11        -0.6901    1.2326   -4.6526 H         1 <0>         0.0886
     29 H12        -0.6699   -0.4609   -5.2000 H         1 <0>         0.0879
     30 H13        -3.1379   -0.5609   -4.9819 H         1 <0>         0.1435
     31 H14        -3.1581    1.1327   -4.4344 H         1 <0>         0.1443
     32 H15        -4.9358    0.8510   -6.5224 H         1 <0>         0.4134
     33 H16        -4.5183    1.3561   -8.0694 H         1 <0>         0.4235
@<TRIPOS>BOND
     1    1    2 1
     2    1   18 1
     3    1   19 1
     4    1   20 1
     5    2    6 2
     6    2    3 1
     7    3    4 2
     8    3    9 1
     9    4    5 1
    10    4    8 1
    11    5    6 1
    12    5    7 1
    13    7   21 1
    14    7   22 1
    15    7   23 1
    16    8   24 1
    17    8   25 1
    18    8   26 1
    19    9   10 2
    20    9   11 am
    21   11   12 1
    22   11   27 1
    23   12   13 1
    24   12   28 1
    25   12   29 1
    26   13   14 1
    27   13   30 1
    28   13   31 1
    29   14   15 2
    30   14   16 2
    31   14   17 1
    32   17   32 1
    33   17   33 1
@<TRIPOS>MOLECULE
ZINC47968227
   31    31     0     0     0
SMALL
USER_CHARGES

@<TRIPOS>ATOM
      1 C1         -0.0178    1.4608    0.0101 C.3       1 <0>         0.1022
      2 N1          0.0021   -0.0041    0.0020 N.am      1 <0>        -0.7481
      3 C2          0.5851   -0.6645   -1.0180 C.2       1 <0>         0.7121
      4 O1          1.0945   -0.0446   -1.9315 O.2       1 <0>        -0.5627
      5 N2          0.6034   -2.0121   -1.0254 N.am      1 <0>        -0.5293
      6 N3          0.0163   -2.7264    0.0272 N.am      1 <0>        -0.5266
      7 C3          0.0346   -4.0741    0.0198 C.2       1 <0>         0.5638
      8 O2          0.5604   -4.6697   -0.9001 O.2       1 <0>        -0.5162
      9 C4         -0.5849   -4.8279    1.1306 C.ar      1 <0>        -0.1478
     10 C5         -1.1946   -4.1470    2.1857 C.ar      1 <0>        -0.0356
     11 C6         -1.7712   -4.8563    3.2187 C.ar      1 <0>        -0.1396
     12 C7         -1.7457   -6.2398    3.2108 C.ar      1 <0>         0.0063
     13 C8         -1.1426   -6.9207    2.1685 C.ar      1 <0>        -0.6656
     14 C9         -0.5677   -6.2233    1.1259 C.ar      1 <0>         0.0403
     15 S1         -1.1147   -8.6825    2.1689 S.o2      1 <0>         2.4996
     16 O3          0.0249   -9.0272    1.3932 O.2       1 <0>        -0.9292
     17 O4         -1.1945   -9.0461    3.5403 O.2       1 <0>        -0.9322
     18 C10        -2.6314   -9.1730    1.3031 C.3       1 <0>        -0.6492
     19 H1          1.0048    1.8381    0.0023 H         1 <0>         0.0645
     20 H2         -0.5450    1.8219   -0.8730 H         1 <0>         0.0644
     21 H3         -0.5280    1.8123    0.9069 H         1 <0>         0.0807
     22 H4         -0.4044   -0.4986    0.7308 H         1 <0>         0.3909
     23 H5          1.0230   -2.4874   -1.7595 H         1 <0>         0.4462
     24 H6         -0.4033   -2.2511    0.7613 H         1 <0>         0.4181
     25 H7         -1.2146   -3.0672    2.1933 H         1 <0>         0.1329
     26 H8         -2.2433   -4.3307    4.0356 H         1 <0>         0.1458
     27 H9         -2.1982   -6.7905    4.0222 H         1 <0>         0.1520
     28 H10        -0.1012   -6.7561    0.3105 H         1 <0>         0.1597
     29 H11        -2.6184   -8.7698    0.2906 H         1 <0>         0.1335
     30 H12        -2.6898  -10.2606    1.2604 H         1 <0>         0.1366
     31 H13        -3.4974   -8.7834    1.8383 H         1 <0>         0.1327
@<TRIPOS>BOND
     1    1    2 1
     2    1   19 1
     3    1   20 1
     4    1   21 1
     5    2    3 am
     6    2   22 1
     7    3    4 2
     8    3    5 am
     9    5    6 1
    10    5   23 1
    11    6    7 am
    12    6   24 1
    13    7    8 2
    14    7    9 1
    15    9   14 ar
    16    9   10 ar
    17   10   11 ar
    18   10   25 1
    19   11   12 ar
    20   11   26 1
    21   12   13 ar
    22   12   27 1
    23   13   14 ar
    24   13   15 1
    25   14   28 1
    26   15   16 2
    27   15   17 2
    28   15   18 1
    29   18   29 1
    30   18   30 1
    31   18   31 1
@<TRIPOS>MOLECULE
ZINC50790437
   32    33     0     0     0
SMALL
USER_CHARGES

@<TRIPOS>ATOM
      1 C1         -0.0184    1.5028    0.0103 C.3       1 <0>        -0.0789
      2 C2          0.0021   -0.0041    0.0020 C.2       1 <0>         0.0955
      3 C3          0.0080   -0.8179   -1.1355 C.2       1 <0>        -0.2643
      4 C4          0.0279   -2.1072   -0.7249 C.2       1 <0>         0.0875
      5 N1          0.0343   -2.1090    0.6245 N.pl3     1 <0>        -0.4739
      6 H1          0.0479   -2.8941    1.1941 H         1 <0>         0.4427
      7 N2          0.0231   -0.7768    1.0576 N.2       1 <0>        -0.2927
      8 C5         -0.0061   -0.3430   -2.5656 C.3       1 <0>         0.2005
      9 N3          1.3465    0.0581   -2.9603 N.am      1 <0>        -0.7071
     10 C6          1.5761    0.5198   -4.2056 C.2       1 <0>         0.5837
     11 O1          0.6609    0.6034   -5.0011 O.2       1 <0>        -0.5355
     12 C7          2.9412    0.9246   -4.6040 C.ar      1 <0>        -0.0378
     13 C8          3.1810    1.4102   -5.8957 C.ar      1 <0>        -0.0215
     14 C9          4.4739    1.7767   -6.2218 C.ar      1 <0>        -0.1882
     15 C10         5.4608    1.6404   -5.2439 C.ar      1 <0>         0.3562
     16 N4          5.1426    1.1701   -4.0428 N.ar      1 <0>        -0.3044
     17 N5          3.9422    0.8341   -3.7366 N.ar      1 <0>        -0.1638
     18 N6          6.7698    1.9946   -5.5255 N.pl3     1 <0>        -0.7095
     19 C11         7.1196    2.5127   -6.8505 C.3       1 <0>         0.0864
     20 H2          1.0042    1.8801    0.0026 H         1 <0>         0.0802
     21 H3         -0.5455    1.8639   -0.8728 H         1 <0>         0.0793
     22 H4         -0.5286    1.8543    0.9071 H         1 <0>         0.0753
     23 H5          0.0366   -2.9785   -1.3629 H         1 <0>         0.1802
     24 H6         -0.3493   -1.1499   -3.2131 H         1 <0>         0.0767
     25 H7         -0.6795    0.5090   -2.6589 H         1 <0>         0.0791
     26 H8          2.0769   -0.0086   -2.3255 H         1 <0>         0.4116
     27 H9          2.3803    1.4954   -6.6155 H         1 <0>         0.1619
     28 H10         4.7132    2.1568   -7.2040 H         1 <0>         0.1537
     29 H11         7.4550    1.8996   -4.8455 H         1 <0>         0.4141
     30 H12         6.8802    1.7658   -7.6074 H         1 <0>         0.0627
     31 H13         6.5527    3.4228   -7.0460 H         1 <0>         0.0629
     32 H14         8.1862    2.7348   -6.8838 H         1 <0>         0.0875
@<TRIPOS>BOND
     1    1    2 1
     2    1   20 1
     3    1   21 1
     4    1   22 1
     5    2    7 2
     6    2    3 1
     7    3    4 2
     8    3    8 1
     9    4    5 1
    10    4   23 1
    11    5    6 1
    12    5    7 1
    13    8    9 1
    14    8   24 1
    15    8   25 1
    16    9   10 am
    17    9   26 1
    18   10   11 2
    19   10   12 1
    20   12   17 ar
    21   12   13 ar
    22   13   14 ar
    23   13   27 1
    24   14   15 ar
    25   14   28 1
    26   15   16 ar
    27   15   18 1
    28   16   17 ar
    29   18   19 1
    30   18   29 1
    31   19   30 1
    32   19   31 1
    33   19   32 1
@<TRIPOS>MOLECULE
ZINC60206190
   34    36     0     0     0
SMALL
USER_CHARGES

@<TRIPOS>ATOM
      1 C1         -0.1984   -2.7752    2.4109 C.3       1 <0>        -0.1896
      2 C2         -1.5362   -2.0330    2.4308 C.3       1 <0>        -0.1940
      3 C3         -0.6036   -1.8969    1.2255 C.3       1 <0>         0.0970
      4 N1         -0.9967   -2.5723   -0.0137 N.am      1 <0>        -0.7166
      5 C4         -0.8770   -1.9355   -1.1955 C.2       1 <0>         0.7139
      6 O1         -0.5292   -0.7708   -1.2260 O.2       1 <0>        -0.5795
      7 N2         -1.1427   -2.5898   -2.3434 N.am      1 <0>        -0.6318
      8 C5         -0.9015   -1.9476   -3.6427 C.3       1 <0>         0.1321
      9 C6         -2.1928   -2.0036   -4.4667 C.3       1 <0>        -0.1308
     10 C7         -2.6811   -3.4464   -4.5446 C.3       1 <0>         0.1245
     11 C8         -2.9641   -3.9984   -3.1513 C.3       1 <0>        -0.1304
     12 C9         -1.6730   -3.9597   -2.3174 C.3       1 <0>         0.1144
     13 C10        -3.9171   -3.5387   -5.4094 C.2       1 <0>         0.5344
     14 O2         -4.9868   -3.0002   -5.2207 O.2       1 <0>        -0.4551
     15 N3         -3.5790   -4.3464   -6.4359 N.am      1 <0>        -0.6800
     16 C11        -2.3129   -4.7690   -6.3344 C.2       1 <0>         0.7054
     17 O3         -1.7797   -5.5062   -7.1403 O.2       1 <0>        -0.5367
     18 N4         -1.6961   -4.2853   -5.2392 N.am      1 <0>        -0.7171
     19 H1          0.5920   -2.4055    3.0642 H         1 <0>         0.1056
     20 H2         -0.2242   -3.8556    2.2688 H         1 <0>         0.0965
     21 H3         -2.4422   -2.6252    2.3017 H         1 <0>         0.0964
     22 H4         -1.6259   -1.1751    3.0971 H         1 <0>         0.1041
     23 H5         -0.0799   -0.9494    1.0989 H         1 <0>         0.1398
     24 H6         -1.3432   -3.4778    0.0164 H         1 <0>         0.3963
     25 H7         -0.6111   -0.9084   -3.4885 H         1 <0>         0.1091
     26 H8         -0.1080   -2.4768   -4.1703 H         1 <0>         0.0718
     27 H9         -2.9551   -1.3870   -3.9905 H         1 <0>         0.0979
     28 H10        -1.9989   -1.6306   -5.4723 H         1 <0>         0.0915
     29 H11        -3.7302   -3.3917   -2.6685 H         1 <0>         0.0984
     30 H12        -3.3126   -5.0280   -3.2320 H         1 <0>         0.0911
     31 H13        -0.9389   -4.6440   -2.7428 H         1 <0>         0.0776
     32 H14        -1.8914   -4.2477   -1.2890 H         1 <0>         0.0883
     33 H15        -4.1792   -4.5909   -7.1576 H         1 <0>         0.4350
     34 H16        -0.7821   -4.4571   -4.9638 H         1 <0>         0.4408
@<TRIPOS>BOND
     1    1    3 1
     2    1    2 1
     3    1   19 1
     4    1   20 1
     5    2    3 1
     6    2   21 1
     7    2   22 1
     8    3    4 1
     9    3   23 1
    10    4    5 am
    11    4   24 1
    12    5    6 2
    13    5    7 am
    14    7   12 1
    15    7    8 1
    16    8    9 1
    17    8   25 1
    18    8   26 1
    19    9   10 1
    20    9   27 1
    21    9   28 1
    22   10   18 1
    23   10   11 1
    24   10   13 1
    25   11   12 1
    26   11   29 1
    27   11   30 1
    28   12   31 1
    29   12   32 1
    30   13   14 2
    31   13   15 am
    32   15   16 am
    33   15   33 1
    34   16   17 2
    35   16   18 am
    36   18   34 1
@<TRIPOS>MOLECULE
ZINC27466799
   33    33     0     0     0
SMALL
USER_CHARGES
(2S)-N-(3-acetylphenyl)-2-ureido-propanamide
@<TRIPOS>ATOM
      1 C1         -1.6059    2.1351    1.3624 C.3       1 <0>        -0.1612
      2 C2         -1.3151    2.0090   -0.1344 C.3       1 <0>         0.1516
      3 H1         -2.1270    1.4761   -0.6510 H         1 <0>         0.1169
      4 C3         -1.1456    3.3826   -0.7307 C.2       1 <0>         0.5145
      5 O1         -0.1006    3.6866   -1.2661 O.2       1 <0>        -0.5150
      6 N1         -2.1553    4.2733   -0.6691 N.am      1 <0>        -0.6824
      7 C4         -1.9617    5.5830   -1.1229 C.ar      1 <0>         0.1397
      8 C5         -3.0131    6.2773   -1.7107 C.ar      1 <0>        -0.1145
      9 C6         -2.8287    7.5713   -2.1611 C.ar      1 <0>        -0.1110
     10 C7         -1.5996    8.1840   -2.0308 C.ar      1 <0>        -0.0891
     11 C8         -0.5347    7.4953   -1.4412 C.ar      1 <0>        -0.1531
     12 C9         -0.7241    6.1891   -0.9811 C.ar      1 <0>        -0.0671
     13 C10         0.7781    8.1455   -1.2999 C.2       1 <0>         0.3930
     14 O2          1.6996    7.5460   -0.7883 O.2       1 <0>        -0.4521
     15 C11         0.9770    9.5562   -1.7911 C.3       1 <0>        -0.2026
     16 N2         -0.0856    1.2367   -0.3297 N.am      1 <0>        -0.7472
     17 C12        -0.1328   -0.1099   -0.3569 C.2       1 <0>         0.7129
     18 O3         -1.1951   -0.6840   -0.2145 O.2       1 <0>        -0.6057
     19 N3          0.9975   -0.8202   -0.5421 N.am      1 <0>        -0.8896
     20 H2         -1.7296    1.1325    1.7976 H         1 <0>         0.0790
     21 H3         -2.5291    2.7149    1.5090 H         1 <0>         0.0716
     22 H4         -0.7680    2.6486    1.8567 H         1 <0>         0.0650
     23 H5         -3.1315    3.9708   -0.2622 H         1 <0>         0.4400
     24 H6         -3.9781    5.8038   -1.8155 H         1 <0>         0.1324
     25 H7         -3.6500    8.1047   -2.6163 H         1 <0>         0.1351
     26 H8         -1.4598    9.1951   -2.3837 H         1 <0>         0.1349
     27 H9          0.0924    5.6529   -0.5204 H         1 <0>         0.1443
     28 H10         2.0145    9.8680   -1.6005 H         1 <0>         0.0872
     29 H11         0.2883   10.2298   -1.2602 H         1 <0>         0.0959
     30 H12         0.7734    9.6005   -2.8712 H         1 <0>         0.0958
     31 H13         0.8761    1.7559   -0.4541 H         1 <0>         0.4264
     32 H14         0.9590   -1.9193   -0.5643 H         1 <0>         0.4386
     33 H15         1.9586   -0.3008   -0.6711 H         1 <0>         0.4159
@<TRIPOS>BOND
     1    1    2 1
     2    1   20 1
     3    1   21 1
     4    1   22 1
     5    2    3 1
     6    2    4 1
     7    2   16 1
     8    4    5 2
     9    4    6 am
    10    6    7 1
    11    6   23 1
    12    7   12 ar
    13    7    8 ar
    14    8    9 ar
    15    8   24 1
    16    9   10 ar
    17    9   25 1
    18   10   11 ar
    19   10   26 1
    20   11   12 ar
    21   11   13 1
    22   12   27 1
    23   13   14 2
    24   13   15 1
    25   15   28 1
    26   15   29 1
    27   15   30 1
    28   16   17 am
    29   16   31 1
    30   17   18 2
    31   17   19 am
    32   19   32 1
    33   19   33 1
@<TRIPOS>MOLECULE
ZINC38091625
   27    27     0     0     0
SMALL
USER_CHARGES

@<TRIPOS>ATOM
      1 C1         -0.0184    1.5028    0.0103 C.3       1 <0>        -0.0808
      2 C2          0.0021   -0.0041    0.0020 C.2       1 <0>         0.0613
      3 C3          0.0059   -0.7076   -1.1591 C.2       1 <0>        -0.2348
      4 S1          0.0324   -2.3789   -0.5312 S.3       1 <0>         0.1354
      5 C4          0.0357   -2.0088    1.1107 C.2       1 <0>         0.0472
      6 N1          0.0226   -0.6992    1.1217 N.2       1 <0>        -0.5116
      7 C5          0.0549   -2.9548    2.2837 C.3       1 <0>         0.1520
      8 N2         -1.3237   -3.2819    2.6715 N.3       1 <0>        -0.6712
      9 C6         -1.3442   -4.2042    3.8147 C.3       1 <0>         0.0451
     10 C7         -2.7718   -4.5161    4.1830 C.2       1 <0>         0.5137
     11 O1         -3.6822   -4.0191    3.5553 O.2       1 <0>        -0.4469
     12 N3         -3.0366   -5.3474    5.2103 N.am      1 <0>        -0.6922
     13 C8         -4.3134   -5.6263    5.5397 C.2       1 <0>         0.6957
     14 O2         -5.2260   -5.1281    4.9104 O.2       1 <0>        -0.5318
     15 N4         -4.5781   -6.4577    6.5669 N.am      1 <0>        -0.8572
     16 H1          1.0042    1.8801    0.0026 H         1 <0>         0.0746
     17 H2         -0.5455    1.8639   -0.8728 H         1 <0>         0.0754
     18 H3         -0.5286    1.8543    0.9071 H         1 <0>         0.0744
     19 H4         -0.0043   -0.3543   -2.1797 H         1 <0>         0.1963
     20 H5          0.5804   -3.8682    2.0052 H         1 <0>         0.1034
     21 H6          0.5661   -2.4828    3.1227 H         1 <0>         0.0698
     22 H7         -1.8510   -2.4454    2.8724 H         1 <0>         0.3617
     23 H8         -0.8284   -5.1263    3.5469 H         1 <0>         0.1149
     24 H9         -0.8427   -3.7410    4.6644 H         1 <0>         0.0738
     25 H10        -2.3082   -5.7451    5.7125 H         1 <0>         0.4106
     26 H11        -3.8497   -6.8553    7.0691 H         1 <0>         0.4000
     27 H12        -5.4970   -6.6584    6.8040 H         1 <0>         0.4212
@<TRIPOS>BOND
     1    1    2 1
     2    1   16 1
     3    1   17 1
     4    1   18 1
     5    2    6 1
     6    2    3 2
     7    3    4 1
     8    3   19 1
     9    4    5 1
    10    5    6 2
    11    5    7 1
    12    7    8 1
    13    7   20 1
    14    7   21 1
    15    8    9 1
    16    8   22 1
    17    9   10 1
    18    9   23 1
    19    9   24 1
    20   10   11 2
    21   10   12 am
    22   12   13 am
    23   12   25 1
    24   13   14 2
    25   13   15 am
    26   15   26 1
    27   15   27 1
@<TRIPOS>MOLECULE
ZINC44785397
   35    35     0     0     0
SMALL
USER_CHARGES

@<TRIPOS>ATOM
      1 C1         -0.0187    1.5258    0.0104 C.3       1 <0>        -0.1307
      2 C2          0.0021   -0.0041    0.0020 C.3       1 <0>        -0.0224
      3 C3          0.7421   -0.5109    1.2415 C.3       1 <0>        -0.1424
      4 C4         -1.4117   -0.5257    0.0127 C.2       1 <0>         0.3953
      5 N1         -2.4049    0.3003    0.0266 N.2       1 <0>        -0.4224
      6 O1         -3.7333   -0.1898    0.0367 O.3       1 <0>        -0.4258
      7 N2         -1.6450   -1.8830    0.0077 N.pl3     1 <0>        -0.8560
      8 C5          0.7074   -0.4901   -1.2379 C.2       1 <0>         0.5262
      9 O2          0.1200   -1.1910   -2.0344 O.2       1 <0>        -0.5222
     10 N3          1.9912   -0.1458   -1.4616 N.am      1 <0>        -0.7197
     11 C6          2.6769   -0.6183   -2.6669 C.3       1 <0>         0.1434
     12 C7          3.2597   -2.0117   -2.4119 C.3       1 <0>        -0.1663
     13 C8          4.0408   -2.4637   -3.6486 C.3       1 <0>         0.0624
     14 O3          5.0648   -1.5101   -3.9384 O.3       1 <0>        -0.3806
     15 C9          4.5758   -0.1997   -4.2316 C.3       1 <0>         0.0636
     16 C10         3.8163    0.3433   -3.0184 C.3       1 <0>        -0.1643
     17 H1          1.0039    1.9031    0.0027 H         1 <0>         0.0663
     18 H2         -0.5459    1.8868   -0.8726 H         1 <0>         0.0715
     19 H3         -0.5289    1.8773    0.9072 H         1 <0>         0.0809
     20 H4          0.2319   -0.1594    2.1383 H         1 <0>         0.0793
     21 H5          0.7568   -1.6008    1.2356 H         1 <0>         0.0662
     22 H6          1.7647   -0.1336    1.2338 H         1 <0>         0.0764
     23 H7         -4.4080    0.5029    0.0468 H         1 <0>         0.3990
     24 H8         -0.8993   -2.5032   -0.0028 H         1 <0>         0.3951
     25 H9         -2.5550   -2.2187    0.0145 H         1 <0>         0.4072
     26 H10         2.4610    0.4148   -0.8245 H         1 <0>         0.4023
     27 H11         1.9694   -0.6634   -3.4949 H         1 <0>         0.0914
     28 H12         3.9285   -1.9750   -1.5520 H         1 <0>         0.0756
     29 H13         2.4503   -2.7147   -2.2152 H         1 <0>         0.0793
     30 H14         4.4936   -3.4365   -3.4570 H         1 <0>         0.0989
     31 H15         3.3631   -2.5392   -4.4990 H         1 <0>         0.0543
     32 H16         5.4141    0.4584   -4.4600 H         1 <0>         0.1011
     33 H17         3.9052   -0.2456   -5.0896 H         1 <0>         0.0549
     34 H18         3.4049    1.3244   -3.2554 H         1 <0>         0.0825
     35 H19         4.4963    0.4275   -2.1707 H         1 <0>         0.0797
@<TRIPOS>BOND
     1    1    2 1
     2    1   17 1
     3    1   18 1
     4    1   19 1
     5    2    3 1
     6    2    4 1
     7    2    8 1
     8    3   20 1
     9    3   21 1
    10    3   22 1
    11    4    5 2
    12    4    7 1
    13    5    6 1
    14    6   23 1
    15    7   24 1
    16    7   25 1
    17    8    9 2
    18    8   10 am
    19   10   11 1
    20   10   26 1
    21   11   16 1
    22   11   12 1
    23   11   27 1
    24   12   13 1
    25   12   28 1
    26   12   29 1
    27   13   14 1
    28   13   30 1
    29   13   31 1
    30   14   15 1
    31   15   16 1
    32   15   32 1
    33   15   33 1
    34   16   34 1
    35   16   35 1
@<TRIPOS>MOLECULE
ZINC51092585
   24    24     0     0     0
SMALL
USER_CHARGES

@<TRIPOS>ATOM
      1 C1         -0.0169    1.3961    0.0097 C.ar      1 <0>        -0.0169
      2 C2          1.1955    2.0620    0.0017 C.ar      1 <0>        -0.1847
      3 C3          2.3633    1.2980   -0.0135 C.ar      1 <0>         0.3643
      4 N1          2.2871   -0.0286   -0.0199 N.ar      1 <0>        -0.2832
      5 N2          1.1630   -0.6484   -0.0125 N.ar      1 <0>        -0.1609
      6 C4          0.0021   -0.0041    0.0020 C.ar      1 <0>        -0.0426
      7 C5         -1.2669   -0.7628    0.0105 C.2       1 <0>         0.5971
      8 O1         -2.3287   -0.1712    0.0243 O.2       1 <0>        -0.5242
      9 N3         -1.2464   -2.1104    0.0031 N.am      1 <0>        -0.7150
     10 C6         -2.5037   -2.8622    0.0116 C.3       1 <0>         0.0771
     11 C7         -2.2013   -4.3620    0.0005 C.3       1 <0>         0.4488
     12 F1         -1.4513   -4.6948    1.1336 F         1 <0>        -0.1757
     13 F2         -3.4020   -5.0799    0.0086 F         1 <0>        -0.1711
     14 F3         -1.4740   -4.6826   -1.1508 F         1 <0>        -0.1761
     15 N4          3.6000    1.9217   -0.0225 N.pl3     1 <0>        -0.5492
     16 N5          4.7424    1.1729   -0.0374 N.3       1 <0>        -0.5977
     17 H1         -0.9500    1.9397    0.0260 H         1 <0>         0.1645
     18 H2          1.2371    3.1412    0.0068 H         1 <0>         0.1561
     19 H3         -0.3991   -2.5825   -0.0078 H         1 <0>         0.4197
     20 H4         -3.0704   -2.6124    0.9086 H         1 <0>         0.1196
     21 H5         -3.0881   -2.6029   -0.8713 H         1 <0>         0.1194
     22 H6          3.6548    2.8901   -0.0181 H         1 <0>         0.4173
     23 H7          4.7488    0.5386   -0.8221 H         1 <0>         0.3510
     24 H8          5.5612    1.7626   -0.0424 H         1 <0>         0.3621
@<TRIPOS>BOND
     1    1    6 ar
     2    1    2 ar
     3    1   17 1
     4    2    3 ar
     5    2   18 1
     6    3    4 ar
     7    3   15 1
     8    4    5 ar
     9    5    6 ar
    10    6    7 1
    11    7    8 2
    12    7    9 am
    13    9   10 1
    14    9   19 1
    15   10   11 1
    16   10   20 1
    17   10   21 1
    18   11   12 1
    19   11   13 1
    20   11   14 1
    21   15   16 1
    22   15   22 1
    23   16   23 1
    24   16   24 1
@<TRIPOS>MOLECULE
ZINC61712741
   37    39     0     0     0
SMALL
USER_CHARGES

@<TRIPOS>ATOM
      1 C1         -0.0170    1.4055    0.0098 C.ar      1 <0>        -0.0039
      2 C2          1.1738    2.0675    0.0020 C.ar      1 <0>        -0.2195
      3 C3          2.3749    1.3443   -0.0134 C.ar      1 <0>         0.4464
      4 N1          2.3861    0.0271   -0.0210 N.ar      1 <0>        -0.5403
      5 C4          1.2484   -0.6766   -0.0139 C.ar      1 <0>         0.2266
      6 C5          0.0021   -0.0041    0.0020 C.ar      1 <0>        -0.1793
      7 C6         -1.1875   -0.7488    0.0089 C.ar      1 <0>         0.0473
      8 C7         -1.1305   -2.1096    0.0006 C.ar      1 <0>        -0.7003
      9 C8          0.0942   -2.7731   -0.0142 C.ar      1 <0>        -0.0143
     10 C9          1.2669   -2.0818   -0.0226 C.ar      1 <0>        -0.1239
     11 S1         -2.6251   -3.0427    0.0092 S.o2      1 <0>         2.7099
     12 O1         -2.3050   -4.3173    0.5498 O.2       1 <0>        -0.9479
     13 O2         -3.6239   -2.2046    0.5742 O.2       1 <0>        -0.9513
     14 N2         -3.0552   -3.2930   -1.5702 N.pl3     1 <0>        -1.0112
     15 C10        -3.9075   -2.4034   -2.3799 C.3       1 <0>         0.1245
     16 C11        -3.5101   -2.7011   -3.8473 C.3       1 <0>        -0.1653
     17 C12        -3.2628   -4.2321   -3.7985 C.3       1 <0>         0.0948
     18 H1         -2.5603   -4.5341   -4.5753 H         1 <0>         0.0798
     19 C13        -2.6451   -4.4359   -2.3992 C.3       1 <0>         0.1245
     20 O3         -4.4933   -4.9473   -3.9263 O.3       1 <0>        -0.5576
     21 N3          3.5793    2.0319   -0.0212 N.pl3     1 <0>        -0.5607
     22 N4          4.7589    1.3431   -0.0361 N.3       1 <0>        -0.5966
     23 H2         -0.9515    1.9467    0.0260 H         1 <0>         0.1481
     24 H3          1.1925    3.1473    0.0072 H         1 <0>         0.1405
     25 H4         -2.1430   -0.2455    0.0211 H         1 <0>         0.1444
     26 H5          0.1136   -3.8529   -0.0198 H         1 <0>         0.1428
     27 H6          2.2081   -2.6114   -0.0347 H         1 <0>         0.1422
     28 H7         -4.9600   -2.6353   -2.2174 H         1 <0>         0.0780
     29 H8         -3.7060   -1.3602   -2.1366 H         1 <0>         0.0759
     30 H9         -4.3248   -2.4585   -4.5296 H         1 <0>         0.0893
     31 H10        -2.6005   -2.1669   -4.1218 H         1 <0>         0.0858
     32 H11        -1.5581   -4.4692   -2.4730 H         1 <0>         0.0823
     33 H12        -3.0177   -5.3627   -1.9631 H         1 <0>         0.0875
     34 H13        -4.9552   -4.7894   -4.7610 H         1 <0>         0.3829
     35 H14         3.5841    3.0018   -0.0160 H         1 <0>         0.4140
     36 H15         4.7984    0.7107   -0.8213 H         1 <0>         0.3475
     37 H16         5.5461    1.9743   -0.0403 H         1 <0>         0.3573
@<TRIPOS>BOND
     1    1    6 ar
     2    1    2 ar
     3    1   23 1
     4    2    3 ar
     5    2   24 1
     6    3    4 ar
     7    3   21 1
     8    4    5 ar
     9    5   10 ar
    10    5    6 ar
    11    6    7 ar
    12    7    8 ar
    13    7   25 1
    14    8    9 ar
    15    8   11 1
    16    9   10 ar
    17    9   26 1
    18   10   27 1
    19   11   12 2
    20   11   13 2
    21   11   14 1
    22   14   19 1
    23   14   15 1
    24   15   16 1
    25   15   28 1
    26   15   29 1
    27   16   17 1
    28   16   30 1
    29   16   31 1
    30   17   18 1
    31   17   19 1
    32   17   20 1
    33   19   32 1
    34   19   33 1
    35   20   34 1
    36   21   22 1
    37   21   35 1
    38   22   36 1
    39   22   37 1
@<TRIPOS>MOLECULE
ZINC07871734
   32    33     0     0     0
SMALL
USER_CHARGES
6-amino-5-methylamino-1-(m-tolyl)pyrimidine-2,4-dione
@<TRIPOS>ATOM
      1 C1         -1.3322    1.8844    2.5741 C.3       1 <0>        -0.1182
      2 C2         -0.6548    2.1861    1.2621 C.ar      1 <0>        -0.0745
      3 C3         -1.2238    1.7582    0.0764 C.ar      1 <0>        -0.0984
      4 C4         -0.6024    2.0281   -1.1288 C.ar      1 <0>        -0.1040
      5 C5          0.5834    2.7363   -1.1528 C.ar      1 <0>        -0.1002
      6 C6          1.1541    3.1722    0.0354 C.ar      1 <0>         0.1089
      7 C7          0.5304    2.8945    1.2447 C.ar      1 <0>        -0.0953
      8 N1          2.3568    3.8903    0.0144 N.am      1 <0>        -0.4944
      9 C8          3.5573    3.2187    0.0962 C.2       1 <0>         0.4546
     10 C9          4.7262    3.9293    0.0697 C.2       1 <0>        -0.1836
     11 C10         4.6701    5.3314   -0.0301 C.2       1 <0>         0.5561
     12 O1          5.6987    5.9865   -0.0513 O.2       1 <0>        -0.5209
     13 N2          3.4733    5.9463   -0.1025 N.am      1 <0>        -0.6616
     14 H1          3.4321    6.9429   -0.1737 H         1 <0>         0.4394
     15 C11         2.3333    5.2324   -0.0799 C.2       1 <0>         0.7084
     16 O2          1.2647    5.8090   -0.1461 O.2       1 <0>        -0.5267
     17 N3          5.9718    3.2647    0.1472 N.pl3     1 <0>        -0.5959
     18 C12         7.0837    4.2240    0.1075 C.3       1 <0>         0.0415
     19 N4          3.5804    1.8460    0.1983 N.pl3     1 <0>        -0.8271
     20 H2         -2.0223    2.6913    2.8207 H         1 <0>         0.0767
     21 H3         -1.8833    0.9476    2.4914 H         1 <0>         0.0728
     22 H4         -0.5811    1.7961    3.3590 H         1 <0>         0.0693
     23 H5         -2.1531    1.2082    0.0923 H         1 <0>         0.1330
     24 H6         -1.0468    1.6888   -2.0528 H         1 <0>         0.1361
     25 H7          1.0662    2.9504   -2.0949 H         1 <0>         0.1302
     26 H8          0.9718    3.2326    2.1707 H         1 <0>         0.1287
     27 H9          6.0224    2.6865    0.9726 H         1 <0>         0.3311
     28 H10         7.0451    4.7865   -0.8253 H         1 <0>         0.0813
     29 H11         7.0010    4.9110    0.9497 H         1 <0>         0.0434
     30 H12         8.0298    3.6863    0.1687 H         1 <0>         0.0559
     31 H13         2.7552    1.3407    0.1306 H         1 <0>         0.4069
     32 H14         4.4219    1.3842    0.3379 H         1 <0>         0.4264
@<TRIPOS>BOND
     1    1    2 1
     2    1   20 1
     3    1   21 1
     4    1   22 1
     5    2    7 ar
     6    2    3 ar
     7    3    4 ar
     8    3   23 1
     9    4    5 ar
    10    4   24 1
    11    5    6 ar
    12    5   25 1
    13    6    7 ar
    14    6    8 1
    15    7   26 1
    16    8   15 am
    17    8    9 1
    18    9   10 2
    19    9   19 1
    20   10   11 1
    21   10   17 1
    22   11   12 2
    23   11   13 am
    24   13   14 1
    25   13   15 am
    26   15   16 2
    27   17   18 1
    28   17   27 1
    29   18   28 1
    30   18   29 1
    31   18   30 1
    32   19   31 1
    33   19   32 1
@<TRIPOS>MOLECULE
ZINC39098285
   28    29     0     0     0
SMALL
USER_CHARGES

@<TRIPOS>ATOM
      1 C1         -0.0167    1.3786    0.0096 C.ar      1 <0>        -0.0462
      2 C2          1.1689    2.0869    0.0021 C.ar      1 <0>        -0.2003
      3 C3          2.3811    1.4088   -0.0131 C.ar      1 <0>         0.2316
      4 C4          2.3964    0.0198   -0.0206 C.ar      1 <0>        -0.1889
      5 C5          1.2071   -0.6823   -0.0130 C.ar      1 <0>        -0.0438
      6 C6          0.0021   -0.0041    0.0020 C.ar      1 <0>        -0.1812
      7 C7         -1.2936   -0.7736    0.0107 C.3       1 <0>         0.1683
      8 N1         -1.7272   -1.0155   -1.3676 N.am      1 <0>        -0.5719
      9 C8         -2.5161   -0.1793   -2.0709 C.2       1 <0>         0.5207
     10 O1         -2.9832    0.8749   -1.6966 O.2       1 <0>        -0.4675
     11 C9         -2.6971   -0.8308   -3.4276 C.3       1 <0>         0.0608
     12 N2         -1.9159   -2.0751   -3.3212 N.am      1 <0>        -0.7304
     13 C10        -1.3841   -2.0911   -2.0856 C.2       1 <0>         0.7012
     14 O2         -0.6741   -2.9843   -1.6671 O.2       1 <0>        -0.5398
     15 N3          3.5820    2.1220   -0.0212 N.pl3     1 <0>        -0.5987
     16 N4          4.7733    1.4536   -0.0361 N.3       1 <0>        -0.6047
     17 H1         -0.9595    1.9052    0.0260 H         1 <0>         0.1261
     18 H2          1.1535    3.1668    0.0077 H         1 <0>         0.1216
     19 H3          3.3371   -0.5105   -0.0328 H         1 <0>         0.1273
     20 H4          1.2182   -1.7622   -0.0189 H         1 <0>         0.1276
     21 H5         -1.1466   -1.7270    0.5180 H         1 <0>         0.1026
     22 H6         -2.0553   -0.1966    0.5352 H         1 <0>         0.1007
     23 H7         -3.7488   -1.0526   -3.6092 H         1 <0>         0.1245
     24 H8         -2.2970   -0.1930   -4.2157 H         1 <0>         0.1235
     25 H9         -1.8042   -2.7499   -4.0090 H         1 <0>         0.4418
     26 H10         3.5702    3.0919   -0.0162 H         1 <0>         0.4030
     27 H11         5.5495    2.0982   -0.0404 H         1 <0>         0.3576
     28 H12         4.8387    0.8139    0.7415 H         1 <0>         0.3345
@<TRIPOS>BOND
     1    1    6 ar
     2    1    2 ar
     3    1   17 1
     4    2    3 ar
     5    2   18 1
     6    3    4 ar
     7    3   15 1
     8    4    5 ar
     9    4   19 1
    10    5    6 ar
    11    5   20 1
    12    6    7 1
    13    7    8 1
    14    7   21 1
    15    7   22 1
    16    8   13 am
    17    8    9 am
    18    9   10 2
    19    9   11 1
    20   11   12 1
    21   11   23 1
    22   11   24 1
    23   12   13 am
    24   12   25 1
    25   13   14 2
    26   15   16 1
    27   15   26 1
    28   16   27 1
    29   16   28 1
@<TRIPOS>MOLECULE
ZINC48498709
   27    27     0     0     0
SMALL
USER_CHARGES

@<TRIPOS>ATOM
      1 C1          3.1942    1.4873    3.1789 C.3       1 <0>         0.0829
      2 N1          3.2190    0.0226    3.1628 N.am      1 <0>        -0.6996
      3 C2          2.2104   -0.6621    2.5880 C.2       1 <0>         0.5100
      4 O1          1.2817   -0.0653    2.0838 O.2       1 <0>        -0.5119
      5 C3          2.2355   -2.1554    2.5716 C.2       1 <0>         0.5093
      6 O2          3.1642   -2.7522    3.0758 O.2       1 <0>        -0.4895
      7 N2          1.2269   -2.8401    1.9969 N.am      1 <0>        -0.6436
      8 C4          1.2955   -4.2276    1.8966 C.ar      1 <0>         0.1793
      9 C5          0.7658   -4.8702    0.7807 C.ar      1 <0>        -0.1435
     10 C6          0.8314   -6.2409    0.6776 C.ar      1 <0>        -0.0527
     11 C7          1.4312   -6.9892    1.6948 C.ar      1 <0>        -0.1481
     12 C8          1.9630   -6.3412    2.8144 C.ar      1 <0>         0.0353
     13 C9          1.8980   -4.9674    2.9086 C.ar      1 <0>        -0.1249
     14 Cl1         2.7087   -7.2651    4.0810 Cl        1 <0>        -0.0185
     15 C10         1.5028   -8.4589    1.5876 C.2       1 <0>         0.5585
     16 O3          2.0249   -9.1083    2.4731 O.2       1 <0>        -0.5149
     17 N3          0.9895   -9.0816    0.5082 N.am      1 <0>        -0.8508
     18 H1          2.3067    1.8299    3.7108 H         1 <0>         0.0692
     19 H2          4.0862    1.8603    3.6824 H         1 <0>         0.0866
     20 H3          3.1715    1.8616    2.1554 H         1 <0>         0.0689
     21 H4          3.9612   -0.4544    3.5658 H         1 <0>         0.4169
     22 H5          0.4533   -2.3666    1.6531 H         1 <0>         0.4291
     23 H6          0.3023   -4.2921   -0.0050 H         1 <0>         0.1441
     24 H7          0.4195   -6.7381   -0.1881 H         1 <0>         0.1429
     25 H8          2.3118   -4.4654    3.7706 H         1 <0>         0.1579
     26 H9          0.5730   -8.5635   -0.1982 H         1 <0>         0.3992
     27 H10         1.0365  -10.0479    0.4377 H         1 <0>         0.4080
@<TRIPOS>BOND
     1    1    2 1
     2    1   18 1
     3    1   19 1
     4    1   20 1
     5    2    3 am
     6    2   21 1
     7    3    4 2
     8    3    5 1
     9    5    6 2
    10    5    7 am
    11    7    8 1
    12    7   22 1
    13    8   13 ar
    14    8    9 ar
    15    9   10 ar
    16    9   23 1
    17   10   11 ar
    18   10   24 1
    19   11   12 ar
    20   11   15 1
    21   12   13 ar
    22   12   14 1
    23   13   25 1
    24   15   16 2
    25   15   17 am
    26   17   26 1
    27   17   27 1
@<TRIPOS>MOLECULE
ZINC54132898
   33    35     0     0     0
SMALL
USER_CHARGES

@<TRIPOS>ATOM
      1 C1          1.8851   -2.2639    1.4456 C.ar      1 <0>        -0.1716
      2 C2          3.1264   -1.6947    1.4819 C.ar      1 <0>        -0.0571
      3 C3          3.3427   -0.5241    0.7303 C.ar      1 <0>        -0.0835
      4 C4          4.5922    0.1147    0.7195 C.ar      1 <0>        -0.1016
      5 C5          4.7620    1.2581   -0.0297 C.ar      1 <0>         0.1452
      6 C6          3.7011    1.7841   -0.7767 C.ar      1 <0>        -0.1145
      7 C7          2.4824    1.1829   -0.7811 C.ar      1 <0>        -0.0711
      8 C8          2.2726    0.0134   -0.0281 C.ar      1 <0>         0.1135
      9 N1          1.0820   -0.5941   -0.0200 N.ar      1 <0>        -0.4712
     10 C9          0.8770   -1.6841    0.6791 C.ar      1 <0>         0.1272
     11 N2          6.0044    1.8991   -0.0440 N.am      1 <0>        -0.6548
     12 C10         7.1375    1.1747    0.0434 C.2       1 <0>         0.5878
     13 O1          7.0844   -0.0398    0.0378 O.2       1 <0>        -0.5127
     14 C11         8.4449    1.8568    0.1460 C.ar      1 <0>        -0.0427
     15 C12         9.6243    1.1058    0.2312 C.ar      1 <0>        -0.0173
     16 C13        10.8231    1.7886    0.3257 C.ar      1 <0>        -0.1844
     17 C14        10.7847    3.1841    0.3304 C.ar      1 <0>         0.3646
     18 N3          9.6185    3.8150    0.2456 N.ar      1 <0>        -0.2834
     19 N4          8.5051    3.1831    0.1523 N.ar      1 <0>        -0.1612
     20 N5         11.9606    3.9100    0.4238 N.pl3     1 <0>        -0.5491
     21 N6         11.9219    5.2755    0.4284 N.3       1 <0>        -0.5976
     22 H1          1.6869   -3.1649    2.0071 H         1 <0>         0.1389
     23 H2          3.9198   -2.1304    2.0710 H         1 <0>         0.1393
     24 H3          5.4138   -0.2867    1.2942 H         1 <0>         0.1427
     25 H4          3.8534    2.6815   -1.3580 H         1 <0>         0.1373
     26 H5          1.6750    1.6029   -1.3626 H         1 <0>         0.1426
     27 H6         -0.0994   -2.1451    0.6595 H         1 <0>         0.1600
     28 H7          6.0509    2.8653   -0.1168 H         1 <0>         0.4236
     29 H8          9.5982    0.0262    0.2237 H         1 <0>         0.1643
     30 H9         11.7613    1.2580    0.3942 H         1 <0>         0.1562
     31 H10        12.8117    3.4487    0.4861 H         1 <0>         0.4174
     32 H11        12.8505    5.6633    0.5011 H         1 <0>         0.3622
     33 H12        11.4465    5.6264   -0.3895 H         1 <0>         0.3510
@<TRIPOS>BOND
     1    1   10 ar
     2    1    2 ar
     3    1   22 1
     4    2    3 ar
     5    2   23 1
     6    3    8 ar
     7    3    4 ar
     8    4    5 ar
     9    4   24 1
    10    5    6 ar
    11    5   11 1
    12    6    7 ar
    13    6   25 1
    14    7    8 ar
    15    7   26 1
    16    8    9 ar
    17    9   10 ar
    18   10   27 1
    19   11   12 am
    20   11   28 1
    21   12   13 2
    22   12   14 1
    23   14   19 ar
    24   14   15 ar
    25   15   16 ar
    26   15   29 1
    27   16   17 ar
    28   16   30 1
    29   17   18 ar
    30   17   20 1
    31   18   19 ar
    32   20   21 1
    33   20   31 1
    34   21   32 1
    35   21   33 1
@<TRIPOS>MOLECULE
ZINC09482558
   30    32     0     0     0
SMALL
USER_CHARGES

@<TRIPOS>ATOM
      1 C1         -0.0184    1.5028    0.0103 C.3       1 <0>        -0.1136
      2 C2          0.0021   -0.0041    0.0020 C.ar      1 <0>        -0.1050
      3 C3          0.0058   -0.6908   -1.1985 C.ar      1 <0>        -0.0701
      4 C4          0.0245   -2.0700   -1.2130 C.ar      1 <0>        -0.1333
      5 C5          0.0402   -2.7821   -0.0151 C.ar      1 <0>         0.1537
      6 C6          0.0367   -2.0809    1.1839 C.ar      1 <0>        -0.1844
      7 C7          0.0229   -0.7042    1.1956 C.ar      1 <0>        -0.0408
      8 C8          0.0564   -3.1180    2.2831 C.3       1 <0>         0.1873
      9 C9          0.0706   -4.4385    1.5429 C.2       1 <0>         0.4989
     10 O1          0.0885   -5.5439    2.0418 O.2       1 <0>        -0.4609
     11 N1          0.0602   -4.1557    0.2294 N.am      1 <0>        -0.6530
     12 C10        -1.1985   -3.0033    3.1508 C.3       1 <0>        -0.1178
     13 H1         -1.2751   -2.0159    3.6061 H         1 <0>         0.1670
     14 C11        -1.2526   -4.1070    4.2012 C.2       1 <0>         0.5487
     15 O2         -0.4252   -4.2387    5.0820 O.2       1 <0>        -0.4263
     16 N2         -2.2855   -4.8972    4.0534 N.2       1 <0>        -0.6769
     17 C12        -3.1909   -4.7645    3.1017 C.2       1 <0>         0.4753
     18 S1         -2.7156   -3.4243    2.1984 S.3       1 <0>        -0.0654
     19 N3         -4.2860   -5.5504    2.8930 N.pl3     1 <0>        -0.7595
     20 O3          1.2332   -2.9789    3.0817 O.3       1 <0>        -0.5011
     21 H2          1.0042    1.8801    0.0026 H         1 <0>         0.0734
     22 H3         -0.5455    1.8639   -0.8728 H         1 <0>         0.0698
     23 H4         -0.5286    1.8543    0.9071 H         1 <0>         0.0692
     24 H5         -0.0063   -0.1442   -2.1298 H         1 <0>         0.1358
     25 H6          0.0266   -2.5990   -2.1545 H         1 <0>         0.1322
     26 H7          0.0242   -0.1714    2.1350 H         1 <0>         0.1334
     27 H8          0.0658   -4.8291   -0.4687 H         1 <0>         0.4184
     28 H9         -4.4632   -6.3013    3.4809 H         1 <0>         0.4260
     29 H10        -4.8875   -5.3584    2.1567 H         1 <0>         0.4283
     30 H11         2.0582   -3.0736    2.5863 H         1 <0>         0.3906
@<TRIPOS>BOND
     1    1    2 1
     2    1   21 1
     3    1   22 1
     4    1   23 1
     5    2    7 ar
     6    2    3 ar
     7    3    4 ar
     8    3   24 1
     9    4    5 ar
    10    4   25 1
    11    5   11 1
    12    5    6 ar
    13    6    7 ar
    14    6    8 1
    15    7   26 1
    16    8    9 1
    17    8   12 1
    18    8   20 1
    19    9   10 2
    20    9   11 am
    21   11   27 1
    22   12   13 1
    23   12   18 1
    24   12   14 1
    25   14   15 2
    26   14   16 1
    27   16   17 2
    28   17   18 1
    29   17   19 1
    30   19   28 1
    31   19   29 1
    32   20   30 1
@<TRIPOS>MOLECULE
ZINC00071744
   36    37     0     0     0
SMALL
USER_CHARGES
methyl 4-(5-carbamoyl-6-methyl-2-oxo-3,4-dihydro-1H-pyrimidin-4-yl)benzoate
@<TRIPOS>ATOM
      1 C1         -2.8016    2.3308    2.5395 C.3       1 <0>        -0.1349
      2 C2         -1.9561    2.0451    1.3253 C.2       1 <0>         0.1971
      3 C3         -0.7145    1.5434    1.4844 C.2       1 <0>        -0.2799
      4 C4          0.1027    1.2713    0.2378 C.3       1 <0>         0.2398
      5 H1          0.3732    0.2154    0.2372 H         1 <0>         0.0964
      6 N1         -0.5314    1.5782   -1.0553 N.am      1 <0>        -0.7122
      7 C5         -1.7836    2.0764   -1.0534 C.2       1 <0>         0.7069
      8 O1         -2.3162    2.3328   -2.1157 O.2       1 <0>        -0.5638
      9 N2         -2.4603    2.2978    0.0806 N.am      1 <0>        -0.6509
     10 C6          1.3756    2.0725    0.3328 C.ar      1 <0>        -0.0740
     11 C7          1.3927    3.3905   -0.0878 C.ar      1 <0>        -0.1121
     12 C8          2.5529    4.1314    0.0017 C.ar      1 <0>        -0.0593
     13 C9          3.7148    3.5446    0.5070 C.ar      1 <0>        -0.1211
     14 C10         3.6919    2.2124    0.9243 C.ar      1 <0>        -0.0488
     15 C11         2.5233    1.4849    0.8350 C.ar      1 <0>        -0.1133
     16 C12         4.9628    4.3297    0.5992 C.2       1 <0>         0.5064
     17 O2          5.9721    3.8164    1.0389 O.2       1 <0>        -0.5018
     18 O3          4.9814    5.6148    0.1957 O.3       1 <0>        -0.3551
     19 C13         6.2422    6.3250    0.3152 C.3       1 <0>         0.0362
     20 C14        -0.1920    1.2795    2.7748 C.2       1 <0>         0.6004
     21 O4         -0.1877    0.1421    3.2090 O.2       1 <0>        -0.5311
     22 N3          0.3002    2.2878    3.5216 N.am      1 <0>        -0.8462
     23 H2         -3.7667    2.7281    2.2250 H         1 <0>         0.0832
     24 H3         -2.9537    1.4093    3.1014 H         1 <0>         0.0963
     25 H4         -2.2961    3.0619    3.1705 H         1 <0>         0.0933
     26 H5         -0.0589    1.4257   -1.8886 H         1 <0>         0.4340
     27 H6         -3.3586    2.6580    0.0149 H         1 <0>         0.4273
     28 H7          0.4946    3.8416   -0.4832 H         1 <0>         0.1275
     29 H8          2.5638    5.1614   -0.3229 H         1 <0>         0.1403
     30 H9          4.5872    1.7524    1.3158 H         1 <0>         0.1411
     31 H10         2.5041    0.4544    1.1575 H         1 <0>         0.1363
     32 H11         7.0019    5.8197   -0.2812 H         1 <0>         0.0654
     33 H12         6.1191    7.3469   -0.0434 H         1 <0>         0.1050
     34 H13         6.5523    6.3416    1.3601 H         1 <0>         0.0653
     35 H14         0.2300    3.2029    3.2078 H         1 <0>         0.4016
     36 H15         0.7246    2.0982    4.3730 H         1 <0>         0.4052
@<TRIPOS>BOND
     1    1    2 1
     2    1   23 1
     3    1   24 1
     4    1   25 1
     5    2    9 1
     6    2    3 2
     7    3    4 1
     8    3   20 1
     9    4    5 1
    10    4    6 1
    11    4   10 1
    12    6    7 am
    13    6   26 1
    14    7    8 2
    15    7    9 am
    16    9   27 1
    17   10   15 ar
    18   10   11 ar
    19   11   12 ar
    20   11   28 1
    21   12   13 ar
    22   12   29 1
    23   13   14 ar
    24   13   16 1
    25   14   15 ar
    26   14   30 1
    27   15   31 1
    28   16   17 2
    29   16   18 1
    30   18   19 1
    31   19   32 1
    32   19   33 1
    33   19   34 1
    34   20   21 2
    35   20   22 am
    36   22   35 1
    37   22   36 1
@<TRIPOS>MOLECULE
ZINC40479116
   36    37     0     0     0
SMALL
USER_CHARGES

@<TRIPOS>ATOM
      1 C1          0.0538    1.5352   -0.4534 C.3       1 <0>        -0.1735
      2 C2          0.0019    0.0293   -0.4312 C.2       1 <0>         0.5101
      3 O1          0.9618   -0.6160   -0.7963 O.2       1 <0>        -0.5311
      4 N1         -1.1111   -0.6005   -0.0058 N.am      1 <0>        -0.6729
      5 C3         -1.1972   -1.9970   -0.0787 C.ar      1 <0>         0.1269
      6 C4         -0.0656   -2.7745    0.1493 C.ar      1 <0>        -0.1073
      7 C5         -0.1391   -4.1501    0.0800 C.ar      1 <0>        -0.1134
      8 C6         -1.3450   -4.7702   -0.2189 C.ar      1 <0>         0.1259
      9 C7         -2.4908   -3.9924   -0.4503 C.ar      1 <0>        -0.1256
     10 C8         -2.4078   -2.5988   -0.3717 C.ar      1 <0>        -0.0900
     11 C9         -3.7732   -4.6405   -0.7682 C.2       1 <0>         0.5269
     12 O2         -4.7904   -3.9680   -0.8676 O.co2     1 <0>        -0.6601
     13 O3         -3.8221   -5.8518   -0.9332 O.co2     1 <0>        -0.6950
     14 N2         -1.4176   -6.1595   -0.2895 N.am      1 <0>        -0.5902
     15 C10        -0.3693   -6.8662   -0.7564 C.2       1 <0>         0.4923
     16 O4          0.6686   -6.3019   -1.0306 O.2       1 <0>        -0.5295
     17 C11        -0.4868   -8.3576   -0.9378 C.3       1 <0>        -0.0053
     18 H1         -1.2989   -8.5566   -1.6372 H         1 <0>         0.1874
     19 C12        -0.8476   -8.9920    0.4278 C.3       1 <0>        -0.0766
     20 S1          0.1524  -10.5436    0.3361 S.3       1 <0>        -0.1767
     21 C13         1.4971   -9.8626   -0.7316 C.3       1 <0>         0.0270
     22 N3          0.7551   -8.8524   -1.5181 N.4       1 <0>        -0.5021
     23 H2          1.0258    1.8599   -0.8246 H         1 <0>         0.0955
     24 H3         -0.7306    1.9162   -1.1074 H         1 <0>         0.0925
     25 H4         -0.0964    1.9189    0.5557 H         1 <0>         0.0914
     26 H5         -1.8526   -0.0868    0.3510 H         1 <0>         0.4132
     27 H6          0.8754   -2.2981    0.3816 H         1 <0>         0.1391
     28 H7          0.7436   -4.7463    0.2583 H         1 <0>         0.1364
     29 H8         -3.2856   -1.9936   -0.5440 H         1 <0>         0.1405
     30 H9         -2.2227   -6.6183   -0.0027 H         1 <0>         0.4323
     31 H10        -0.5240   -8.3607    1.2554 H         1 <0>         0.1312
     32 H11        -1.9134   -9.2111    0.4933 H         1 <0>         0.1687
     33 H12         2.2760   -9.3942   -0.1299 H         1 <0>         0.1593
     34 H13         1.9144  -10.6355   -1.3771 H         1 <0>         0.1773
     35 H14         0.5412   -9.2558   -2.4179 H         1 <0>         0.4399
     36 H15         1.3661   -8.0637   -1.6689 H         1 <0>         0.4351
@<TRIPOS>BOND
     1    1    2 1
     2    1   23 1
     3    1   24 1
     4    1   25 1
     5    2    3 2
     6    2    4 am
     7    4    5 1
     8    4   26 1
     9    5   10 ar
    10    5    6 ar
    11    6    7 ar
    12    6   27 1
    13    7    8 ar
    14    7   28 1
    15    8    9 ar
    16    8   14 1
    17    9   10 ar
    18    9   11 1
    19   10   29 1
    20   11   12 2
    21   11   13 1
    22   14   15 am
    23   14   30 1
    24   15   16 2
    25   15   17 1
    26   17   18 1
    27   17   22 1
    28   17   19 1
    29   19   20 1
    30   19   31 1
    31   19   32 1
    32   20   21 1
    33   21   22 1
    34   21   33 1
    35   21   34 1
    36   22   35 1
    37   22   36 1
@<TRIPOS>MOLECULE
ZINC49469850
   31    32     0     0     0
SMALL
USER_CHARGES

@<TRIPOS>ATOM
      1 C1         -0.2502    1.2813    0.1514 C.3       1 <0>        -0.0796
      2 C2          0.6517    0.1004   -0.0998 C.2       1 <0>         0.0724
      3 C3          0.7431   -0.6224   -1.2983 C.2       1 <0>         0.0168
      4 C4          1.6634   -1.6046   -1.1227 C.2       1 <0>         0.0143
      5 N1          2.1356   -1.5016    0.1477 N.pl3     1 <0>        -0.4660
      6 H1          2.8056   -2.0720    0.5559 H         1 <0>         0.4491
      7 N2          1.4871   -0.4220    0.7611 N.2       1 <0>        -0.2638
      8 N3          0.0103   -0.3737   -2.4741 N.pl3     1 <0>        -0.6366
      9 C5          0.1003   -1.2561   -3.5526 C.ar      1 <0>         0.3091
     10 C6          0.1094   -2.6280   -3.3311 C.ar      1 <0>        -0.1932
     11 C7          0.1984   -3.4976   -4.3999 C.ar      1 <0>         0.0574
     12 C8          0.2791   -3.0047   -5.6897 C.ar      1 <0>        -0.7180
     13 C9          0.2703   -1.6403   -5.9138 C.ar      1 <0>         0.0839
     14 C10         0.1751   -0.7647   -4.8499 C.ar      1 <0>        -0.1217
     15 N4          0.1597    0.6957   -5.0911 N.pl3     1 <0>         0.0451
     16 O1          0.1402    1.1213   -6.2226 O.2       1 <0>        -0.1494
     17 O2          0.1665    1.4628   -4.1567 O.3       1 <0>        -0.1664
     18 S1          0.3938   -4.1181   -7.0505 S.o2      1 <0>         2.7097
     19 O3          1.0067   -3.3998   -8.1124 O.2       1 <0>        -0.9537
     20 O4          0.9326   -5.3297   -6.5396 O.2       1 <0>        -0.9550
     21 N5         -1.1522   -4.4562   -7.5382 N.pl3     1 <0>        -1.2483
     22 H2          0.2704    2.2000   -0.1189 H         1 <0>         0.0859
     23 H3         -1.1527    1.1840   -0.4520 H         1 <0>         0.0757
     24 H4         -0.5205    1.3140    1.2068 H         1 <0>         0.0820
     25 H5          1.9653   -2.3352   -1.8585 H         1 <0>         0.1804
     26 H6         -0.5571    0.4106   -2.5351 H         1 <0>         0.4293
     27 H7          0.0472   -3.0135   -2.3242 H         1 <0>         0.1600
     28 H8          0.2056   -4.5639   -4.2285 H         1 <0>         0.1643
     29 H9          0.3337   -1.2589   -6.9222 H         1 <0>         0.1741
     30 H10        -1.9050   -4.0526   -7.0785 H         1 <0>         0.4176
     31 H11        -1.3050   -5.0578   -8.2836 H         1 <0>         0.4245
@<TRIPOS>BOND
     1    1    2 1
     2    1   22 1
     3    1   23 1
     4    1   24 1
     5    2    7 2
     6    2    3 1
     7    3    4 2
     8    3    8 1
     9    4    5 1
    10    4   25 1
    11    5    6 1
    12    5    7 1
    13    8    9 1
    14    8   26 1
    15    9   14 ar
    16    9   10 ar
    17   10   11 ar
    18   10   27 1
    19   11   12 ar
    20   11   28 1
    21   12   13 ar
    22   12   18 1
    23   13   14 ar
    24   13   29 1
    25   14   15 1
    26   15   16 2
    27   15   17 1
    28   18   19 2
    29   18   20 2
    30   18   21 1
    31   21   30 1
    32   21   31 1
@<TRIPOS>MOLECULE
ZINC08721222
   36    39     0     0     0
SMALL
USER_CHARGES

@<TRIPOS>ATOM
      1 C1         -0.0184    1.5028    0.0103 C.3       1 <0>        -0.1126
      2 C2          0.0021   -0.0041    0.0020 C.ar      1 <0>        -0.0099
      3 C3          0.0065   -0.7242   -1.1882 C.ar      1 <0>        -0.1465
      4 C4          0.0259   -2.1037   -1.1931 C.ar      1 <0>        -0.0770
      5 C5          0.0422   -2.8416   -0.0195 C.ar      1 <0>        -0.1448
      6 C6          0.0380   -2.1311    1.1814 C.ar      1 <0>         0.1538
      7 C7          0.0231   -0.7300    1.1729 C.ar      1 <0>        -0.1328
      8 C8          0.0263   -0.3043    2.6058 C.3       1 <0>         0.1275
      9 C9          1.2371    0.5234    2.9316 C.2       1 <0>        -0.2527
     10 C10         2.5733    0.1535    2.9976 C.2       1 <0>         0.1289
     11 N1          3.2751    1.2136    3.3210 N.2       1 <0>        -0.2553
     12 N2          2.3968    2.2982    3.4709 N.pl3     1 <0>        -0.4398
     13 H1          2.6450    3.2055    3.7075 H         1 <0>         0.4498
     14 C11         1.1525    1.8573    3.2283 C.2       1 <0>         0.2891
     15 O1         -0.0261    2.5273    3.2495 O.3       1 <0>        -0.2272
     16 C12        -1.1642    1.8041    3.2332 C.2       1 <0>         0.4547
     17 C13        -1.2102    0.4826    2.9435 C.2       1 <0>        -0.2481
     18 C14        -2.4759   -0.1871    2.9586 C.1       1 <0>         0.2651
     19 N3         -3.4800   -0.7183    2.9705 N.1       1 <0>        -0.4237
     20 N4         -2.3424    2.4440    3.5276 N.pl3     1 <0>        -0.8235
     21 C15         3.1225   -1.2265    2.7422 C.3       1 <0>        -0.0825
     22 C16         0.0517   -1.6008    3.3851 C.2       1 <0>         0.5392
     23 O2          0.0603   -1.7169    4.5923 O.2       1 <0>        -0.4773
     24 N5          0.0505   -2.6038    2.4819 N.am      1 <0>        -0.6621
     25 H2          1.0042    1.8801    0.0026 H         1 <0>         0.0738
     26 H3         -0.5455    1.8639   -0.8728 H         1 <0>         0.0729
     27 H4         -0.5286    1.8543    0.9071 H         1 <0>         0.0619
     28 H5         -0.0058   -0.1923   -2.1280 H         1 <0>         0.1259
     29 H6          0.0280   -2.6243   -2.1394 H         1 <0>         0.1282
     30 H7          0.0573   -3.9214   -0.0341 H         1 <0>         0.1354
     31 H8         -2.3405    3.3906    3.7395 H         1 <0>         0.4148
     32 H9         -3.1770    1.9496    3.5238 H         1 <0>         0.4300
     33 H10         3.3676   -1.3301    1.6852 H         1 <0>         0.0893
     34 H11         4.0216   -1.3761    3.3400 H         1 <0>         0.0847
     35 H12         2.3756   -1.9713    3.0167 H         1 <0>         0.0738
     36 H13         0.0676   -3.5448    2.7166 H         1 <0>         0.4169
@<TRIPOS>BOND
     1    1    2 1
     2    1   25 1
     3    1   26 1
     4    1   27 1
     5    2    7 ar
     6    2    3 ar
     7    3    4 ar
     8    3   28 1
     9    4    5 ar
    10    4   29 1
    11    5    6 ar
    12    5   30 1
    13    6   24 1
    14    6    7 ar
    15    7    8 1
    16    8   17 1
    17    8    9 1
    18    8   22 1
    19    9   14 2
    20    9   10 1
    21   10   11 2
    22   10   21 1
    23   11   12 1
    24   12   13 1
    25   12   14 1
    26   14   15 1
    27   15   16 1
    28   16   17 2
    29   16   20 1
    30   17   18 1
    31   18   19 3
    32   20   31 1
    33   20   32 1
    34   21   33 1
    35   21   34 1
    36   21   35 1
    37   22   23 2
    38   22   24 am
    39   24   36 1
@<TRIPOS>MOLECULE
ZINC53234472
   45    46     0     0     0
SMALL
USER_CHARGES

@<TRIPOS>ATOM
      1 C1         -0.0697    1.4557    0.0231 C.3       1 <0>        -0.1390
      2 C2         -0.0306   -0.0738    0.0164 C.3       1 <0>        -0.1435
      3 C3          0.6800   -0.5526   -1.2232 C.2       1 <0>         0.5150
      4 O1          1.1126    0.2503   -2.0227 O.2       1 <0>        -0.5377
      5 N1          0.8349   -1.8732   -1.4435 N.am      1 <0>        -0.6146
      6 C4          0.3110   -2.8582   -0.4874 C.3       1 <0>         0.1026
      7 C5          1.4455   -3.8050   -0.0834 C.3       1 <0>        -0.1360
      8 C6          2.0652   -4.4181   -1.3413 C.3       1 <0>        -0.1017
      9 C7          2.6512   -3.3078   -2.2165 C.3       1 <0>        -0.1198
     10 C8          1.5254   -2.3554   -2.6474 C.3       1 <0>         0.1196
     11 C9          3.2895   -3.9151   -3.4391 C.2       1 <0>         0.5209
     12 O2          3.2773   -5.1179   -3.5956 O.2       1 <0>        -0.5124
     13 N2          3.8741   -3.1218   -4.3586 N.am      1 <0>        -0.6719
     14 C10         4.5513   -3.6903   -5.4452 C.ar      1 <0>         0.1257
     15 C11         5.6938   -3.0811   -5.9471 C.ar      1 <0>        -0.1235
     16 C12         6.3611   -3.6413   -7.0179 C.ar      1 <0>        -0.1271
     17 C13         5.8896   -4.8137   -7.5935 C.ar      1 <0>         0.1471
     18 C14         4.7469   -5.4227   -7.0920 C.ar      1 <0>        -0.1004
     19 C15         4.0833   -4.8661   -6.0169 C.ar      1 <0>        -0.0996
     20 N3          6.5666   -5.3820   -8.6806 N.am      1 <0>        -0.6849
     21 C16         5.8741   -6.0034   -9.6556 C.2       1 <0>         0.7047
     22 O3          4.6709   -6.1447   -9.5513 O.2       1 <0>        -0.5748
     23 N4          6.5151   -6.4681  -10.7463 N.am      1 <0>        -0.8615
     24 H1          0.9482    1.8453    0.0145 H         1 <0>         0.0618
     25 H2         -0.6016    1.8094   -0.8601 H         1 <0>         0.0620
     26 H3         -0.5837    1.8021    0.9197 H         1 <0>         0.0629
     27 H4          0.5013   -0.4275    0.8996 H         1 <0>         0.0944
     28 H5         -1.0486   -0.4633    0.0251 H         1 <0>         0.0943
     29 H6         -0.0679   -2.3441    0.3960 H         1 <0>         0.0909
     30 H7         -0.4924   -3.4285   -0.9536 H         1 <0>         0.0745
     31 H8          2.2069   -3.2482    0.4629 H         1 <0>         0.0701
     32 H9          1.0491   -4.5981    0.5505 H         1 <0>         0.0849
     33 H10         2.8565   -5.1110   -1.0555 H         1 <0>         0.0780
     34 H11         1.2978   -4.9539   -1.9000 H         1 <0>         0.0757
     35 H12         3.4012   -2.7557   -1.6501 H         1 <0>         0.1057
     36 H13         0.8190   -2.8856   -3.2862 H         1 <0>         0.0758
     37 H14         1.9480   -1.5096   -3.1898 H         1 <0>         0.0975
     38 H15         3.8258   -2.1573   -4.2680 H         1 <0>         0.4119
     39 H16         6.0601   -2.1688   -5.4999 H         1 <0>         0.1303
     40 H17         7.2497   -3.1675   -7.4082 H         1 <0>         0.1298
     41 H18         4.3800   -6.3344   -7.5399 H         1 <0>         0.1444
     42 H19         3.1972   -5.3423   -5.6238 H         1 <0>         0.1419
     43 H20         7.5338   -5.3282   -8.7315 H         1 <0>         0.4074
     44 H21         7.4749   -6.3554  -10.8295 H         1 <0>         0.3990
     45 H22         6.0166   -6.9153  -11.4481 H         1 <0>         0.4195
@<TRIPOS>BOND
     1    1    2 1
     2    1   24 1
     3    1   25 1
     4    1   26 1
     5    2    3 1
     6    2   27 1
     7    2   28 1
     8    3    4 2
     9    3    5 am
    10    5   10 1
    11    5    6 1
    12    6    7 1
    13    6   29 1
    14    6   30 1
    15    7    8 1
    16    7   31 1
    17    7   32 1
    18    8    9 1
    19    8   33 1
    20    8   34 1
    21    9   10 1
    22    9   11 1
    23    9   35 1
    24   10   36 1
    25   10   37 1
    26   11   12 2
    27   11   13 am
    28   13   14 1
    29   13   38 1
    30   14   19 ar
    31   14   15 ar
    32   15   16 ar
    33   15   39 1
    34   16   17 ar
    35   16   40 1
    36   17   18 ar
    37   17   20 1
    38   18   19 ar
    39   18   41 1
    40   19   42 1
    41   20   21 am
    42   20   43 1
    43   21   22 2
    44   21   23 am
    45   23   44 1
    46   23   45 1
@<TRIPOS>MOLECULE
ZINC05377818
   34    34     0     0     0
SMALL
USER_CHARGES
6-hydroxy-1-isopropylideneamino-4,4,6-trimethyl-hexahydropyrimidine-2-thione
@<TRIPOS>ATOM
      1 C1         -1.7599    3.8050    0.7655 C.3       1 <0>        -0.1738
      2 C2         -2.2070    2.9147    1.8962 C.2       1 <0>         0.1938
      3 N1         -3.0450    1.9724    1.6759 N.2       1 <0>        -0.2665
      4 N2         -3.4471    1.6848    0.3651 N.pl3     1 <0>        -0.4402
      5 C3         -2.5621    1.1548   -0.4924 C.2       1 <0>         0.5721
      6 S1         -0.9646    0.8640    0.0502 S.2       1 <0>        -0.6616
      7 N3         -2.8793    0.8433   -1.7579 N.pl3     1 <0>        -0.6606
      8 C4         -4.2242    1.0785   -2.2858 C.3       1 <0>         0.1443
      9 C5         -5.2376    0.9838   -1.1402 C.3       1 <0>        -0.1205
     10 C6         -4.8261    1.9632   -0.0393 C.3       1 <0>         0.3385
     11 C7         -5.7551    1.7998    1.1653 C.3       1 <0>        -0.1675
     12 O1         -4.9174    3.2998   -0.5366 O.3       1 <0>        -0.5493
     13 C8         -4.2907    2.4723   -2.9133 C.3       1 <0>        -0.1574
     14 C9         -4.5496    0.0233   -3.3448 C.3       1 <0>        -0.1563
     15 C10        -1.6675    3.1337    3.2862 C.3       1 <0>        -0.1036
     16 H1         -0.8255    3.4255    0.3518 H         1 <0>         0.1099
     17 H2         -1.6071    4.8176    1.1389 H         1 <0>         0.0822
     18 H3         -2.5236    3.8159   -0.0122 H         1 <0>         0.0628
     19 H4         -2.2038    0.4539   -2.3350 H         1 <0>         0.4301
     20 H5         -6.2308    1.2412   -1.5079 H         1 <0>         0.1148
     21 H6         -5.2439   -0.0301   -0.7400 H         1 <0>         0.0973
     22 H7         -5.4592    2.4967    1.9495 H         1 <0>         0.0730
     23 H8         -6.7817    2.0073    0.8633 H         1 <0>         0.0811
     24 H9         -5.6863    0.7791    1.5414 H         1 <0>         0.0807
     25 H10        -4.6671    3.9768    0.1069 H         1 <0>         0.3780
     26 H11        -3.7019    2.4862   -3.8306 H         1 <0>         0.0584
     27 H12        -5.3274    2.7181   -3.1432 H         1 <0>         0.0737
     28 H13        -3.8900    3.2054   -2.2133 H         1 <0>         0.0806
     29 H14        -4.5046   -0.9686   -2.8953 H         1 <0>         0.0678
     30 H15        -5.5512    0.1993   -3.7373 H         1 <0>         0.0820
     31 H16        -3.8249    0.0876   -4.1565 H         1 <0>         0.0711
     32 H17        -2.3135    3.8300    3.8211 H         1 <0>         0.0885
     33 H18        -1.6383    2.1830    3.8185 H         1 <0>         0.0870
     34 H19        -0.6607    3.5466    3.2243 H         1 <0>         0.0897
@<TRIPOS>BOND
     1    1    2 1
     2    1   16 1
     3    1   17 1
     4    1   18 1
     5    2    3 2
     6    2   15 1
     7    3    4 1
     8    4   10 1
     9    4    5 1
    10    5    6 2
    11    5    7 1
    12    7    8 1
    13    7   19 1
    14    8    9 1
    15    8   13 1
    16    8   14 1
    17    9   10 1
    18    9   20 1
    19    9   21 1
    20   10   11 1
    21   10   12 1
    22   11   22 1
    23   11   23 1
    24   11   24 1
    25   12   25 1
    26   13   26 1
    27   13   27 1
    28   13   28 1
    29   14   29 1
    30   14   30 1
    31   14   31 1
    32   15   32 1
    33   15   33 1
    34   15   34 1
@<TRIPOS>MOLECULE
ZINC03093412
   22    23     0     0     0
SMALL
USER_CHARGES
(5Z)-5-[(3-chlorophenyl)methylene]imidazolidine-2,4-dione
@<TRIPOS>ATOM
      1 C1          2.3373    3.8336   -0.9596 C.ar      1 <0>        -0.0989
      2 C2          1.1714    3.1517   -0.6816 C.ar      1 <0>        -0.1200
      3 C3          1.2258    1.8083   -0.2951 C.ar      1 <0>        -0.0558
      4 C4          2.4643    1.1637   -0.2040 C.ar      1 <0>        -0.0857
      5 C5          3.6216    1.8583   -0.4900 C.ar      1 <0>        -0.0315
      6 C6          3.5588    3.1901   -0.8670 C.ar      1 <0>        -0.0985
      7 Cl1         5.1599    1.0616   -0.3779 Cl        1 <0>        -0.0583
      8 C7         -0.0126    1.0758    0.0080 C.2       1 <0>        -0.0329
      9 C8         -1.1253    1.7522    0.3837 C.2       1 <0>         0.0258
     10 C9         -2.4849    1.2126    0.5568 C.2       1 <0>         0.5640
     11 O1         -2.8411    0.0610    0.3907 O.2       1 <0>        -0.4556
     12 N1         -3.2544    2.2515    0.9402 N.am      1 <0>        -0.6750
     13 C10        -2.5116    3.3668    1.0097 C.2       1 <0>         0.7033
     14 O2         -2.9401    4.4603    1.3247 O.2       1 <0>        -0.5201
     15 N2         -1.2310    3.1160    0.6851 N.am      1 <0>        -0.6657
     16 H1          2.2967    4.8719   -1.2541 H         1 <0>         0.1403
     17 H2          0.2187    3.6547   -0.7585 H         1 <0>         0.1335
     18 H3          2.5142    0.1255    0.0891 H         1 <0>         0.1437
     19 H4          4.4679    3.7286   -1.0900 H         1 <0>         0.1392
     20 H5         -0.0367   -0.0009   -0.0732 H         1 <0>         0.1654
     21 H6         -4.2039    2.2011    1.1321 H         1 <0>         0.4417
     22 H7         -0.5094    3.7638    0.6635 H         1 <0>         0.4410
@<TRIPOS>BOND
     1    1    6 ar
     2    1    2 ar
     3    1   16 1
     4    2    3 ar
     5    2   17 1
     6    3    4 ar
     7    3    8 1
     8    4    5 ar
     9    4   18 1
    10    5    6 ar
    11    5    7 1
    12    6   19 1
    13    8    9 2
    14    8   20 1
    15    9   15 1
    16    9   10 1
    17   10   11 2
    18   10   12 am
    19   12   13 am
    20   12   21 1
    21   13   14 2
    22   13   15 am
    23   15   22 1
@<TRIPOS>MOLECULE
ZINC35237528
   23    24     0     0     0
SMALL
USER_CHARGES

@<TRIPOS>ATOM
      1 C1         -0.0184    1.5028    0.0103 C.3       1 <0>        -0.0766
      2 C2          0.0021   -0.0041    0.0020 C.2       1 <0>        -0.1799
      3 C3         -1.0564   -0.8515    0.0021 C.2       1 <0>        -0.1940
      4 C4         -0.8272   -2.2066   -0.0063 C.2       1 <0>        -0.0530
      5 C5          0.5047   -2.5921   -0.0143 C.2       1 <0>        -0.2655
      6 S1          1.3414   -1.0180   -0.0168 S.3       1 <0>         0.2012
      7 C6          1.0758   -3.9420   -0.0241 C.2       1 <0>         0.6100
      8 O1          0.3420   -4.9133   -0.0262 O.2       1 <0>        -0.5143
      9 N1          2.4133   -4.1079   -0.0309 N.am      1 <0>        -0.6384
     10 C7          2.9616   -5.4038   -0.0404 C.2       1 <0>        -0.0010
     11 C8          4.2836   -5.7127   -0.0424 C.2       1 <0>         0.0265
     12 N2          4.3880   -7.0670   -0.0524 N.pl3     1 <0>        -0.4728
     13 H1          5.2138   -7.5759   -0.0558 H         1 <0>         0.4458
     14 N3          3.0921   -7.5985   -0.0566 N.2       1 <0>        -0.2801
     15 C9          2.2394   -6.6063   -0.0433 C.2       1 <0>         0.0562
     16 H2          1.0042    1.8801    0.0026 H         1 <0>         0.0751
     17 H3         -0.5455    1.8639   -0.8728 H         1 <0>         0.0852
     18 H4         -0.5286    1.8543    0.9071 H         1 <0>         0.0853
     19 H5         -2.0656   -0.4669    0.0090 H         1 <0>         0.1399
     20 H6         -1.6332   -2.9254   -0.0063 H         1 <0>         0.1515
     21 H7          2.9980   -3.3339   -0.0293 H         1 <0>         0.4094
     22 H8          5.1032   -5.0095   -0.0371 H         1 <0>         0.1820
     23 H9          1.1633   -6.6975   -0.0386 H         1 <0>         0.2074
@<TRIPOS>BOND
     1    1    2 1
     2    1   16 1
     3    1   17 1
     4    1   18 1
     5    2    6 1
     6    2    3 2
     7    3    4 1
     8    3   19 1
     9    4    5 2
    10    4   20 1
    11    5    6 1
    12    5    7 1
    13    7    8 2
    14    7    9 am
    15    9   10 1
    16    9   21 1
    17   10   15 1
    18   10   11 2
    19   11   12 1
    20   11   22 1
    21   12   13 1
    22   12   14 1
    23   14   15 2
    24   15   23 1
@<TRIPOS>MOLECULE
ZINC40413280
   29    30     0     0     0
SMALL
USER_CHARGES

@<TRIPOS>ATOM
      1 C1         -0.0602    1.5022   -0.0088 C.3       1 <0>        -0.1152
      2 C2         -0.0287   -0.0045   -0.0120 C.ar      1 <0>        -0.0847
      3 C3         -0.0216   -0.6914   -1.2122 C.ar      1 <0>        -0.1057
      4 C4          0.0073   -2.0730   -1.2214 C.ar      1 <0>        -0.1124
      5 C5          0.0297   -2.7740   -0.0242 C.ar      1 <0>         0.1161
      6 C6          0.0231   -2.0812    1.1845 C.ar      1 <0>         0.0795
      7 C7         -0.0011   -0.6959    1.1848 C.ar      1 <0>        -0.1239
      8 O1          0.0446   -2.7628    2.3609 O.3       1 <0>        -0.4954
      9 N1          0.0586   -4.1740   -0.0309 N.am      1 <0>        -0.6574
     10 C8          0.5551   -4.8328   -1.0967 C.2       1 <0>         0.5591
     11 O2          1.0693   -4.2143   -2.0079 O.2       1 <0>        -0.5054
     12 C9          0.4740   -6.3104   -1.1576 C.ar      1 <0>        -0.0913
     13 C10        -0.1186   -7.0408   -0.1229 C.ar      1 <0>        -0.1422
     14 C11        -0.1727   -8.4177   -0.2208 C.ar      1 <0>         0.1004
     15 N2          0.3244   -9.0417   -1.2702 N.ar      1 <0>        -0.4651
     16 C12         0.8912   -8.3917   -2.2670 C.ar      1 <0>         0.1007
     17 C13         0.9829   -7.0134   -2.2541 C.ar      1 <0>        -0.1121
     18 H1          0.9595    1.8869   -0.0193 H         1 <0>         0.0728
     19 H2         -0.5913    1.8563   -0.8924 H         1 <0>         0.0695
     20 H3         -0.5718    1.8529    0.8875 H         1 <0>         0.0681
     21 H4         -0.0391   -0.1468   -2.1446 H         1 <0>         0.1307
     22 H5          0.0120   -2.6069   -2.1602 H         1 <0>         0.1500
     23 H6         -0.0026   -0.1562    2.1202 H         1 <0>         0.1342
     24 H7          0.9340   -2.9417    2.6956 H         1 <0>         0.3896
     25 H8         -0.2788   -4.6697    0.7316 H         1 <0>         0.4158
     26 H9         -0.5275   -6.5362    0.7399 H         1 <0>         0.1399
     27 H10        -0.6280   -8.9907    0.5733 H         1 <0>         0.1658
     28 H11         1.2852   -8.9439   -3.1074 H         1 <0>         0.1675
     29 H12         1.4445   -6.4870   -3.0764 H         1 <0>         0.1512
@<TRIPOS>BOND
     1    1    2 1
     2    1   18 1
     3    1   19 1
     4    1   20 1
     5    2    7 ar
     6    2    3 ar
     7    3    4 ar
     8    3   21 1
     9    4    5 ar
    10    4   22 1
    11    5    6 ar
    12    5    9 1
    13    6    7 ar
    14    6    8 1
    15    7   23 1
    16    8   24 1
    17    9   10 am
    18    9   25 1
    19   10   11 2
    20   10   12 1
    21   12   17 ar
    22   12   13 ar
    23   13   14 ar
    24   13   26 1
    25   14   15 ar
    26   14   27 1
    27   15   16 ar
    28   16   17 ar
    29   16   28 1
    30   17   29 1
@<TRIPOS>MOLECULE
ZINC57330696
   26    27     0     0     0
SMALL
USER_CHARGES

@<TRIPOS>ATOM
      1 C1          0.0103    1.5030    0.0242 C.3       1 <0>        -0.1160
      2 C2          0.0232   -0.0039    0.0122 C.ar      1 <0>        -0.1274
      3 C3         -0.1606   -0.6861   -1.1764 C.ar      1 <0>        -0.0729
      4 C4         -0.1498   -2.0670   -1.1911 C.ar      1 <0>        -0.1458
      5 C5          0.0464   -2.7722   -0.0103 C.ar      1 <0>         0.1768
      6 C6          0.2313   -2.0864    1.1824 C.ar      1 <0>        -0.1370
      7 C7          0.2248   -0.7029    1.1907 C.ar      1 <0>         0.1166
      8 F1          0.4096   -0.0336    2.3496 F         1 <0>        -0.1324
      9 N1          0.0572   -4.1707   -0.0232 N.pl3     1 <0>        -0.6408
     10 C8         -0.4300   -4.8696    1.0504 C.2       1 <0>         0.6280
     11 N2         -1.0076   -4.2176    2.0396 N.2       1 <0>        -0.5802
     12 C9         -1.4940   -4.8576    3.1005 C.2       1 <0>         0.1940
     13 C10        -1.4013   -6.2167    3.1820 C.2       1 <0>        -0.3339
     14 C11        -0.7865   -6.9202    2.1309 C.2       1 <0>         0.5411
     15 N3         -0.3139   -6.2253    1.0741 N.am      1 <0>        -0.6472
     16 O1         -0.6862   -8.1355    2.1711 O.2       1 <0>        -0.5360
     17 H1          1.0211    1.8763   -0.1403 H         1 <0>         0.0752
     18 H2         -0.6448    1.8671   -0.7672 H         1 <0>         0.0735
     19 H3         -0.3546    1.8555    0.9889 H         1 <0>         0.0711
     20 H4         -0.3131   -0.1383   -2.0945 H         1 <0>         0.1394
     21 H5         -0.2942   -2.5984   -2.1201 H         1 <0>         0.1340
     22 H6          0.3837   -2.6319    2.1020 H         1 <0>         0.1528
     23 H7          0.4094   -4.6459   -0.7919 H         1 <0>         0.4255
     24 H8         -1.9625   -4.3004    3.8982 H         1 <0>         0.1723
     25 H9         -1.7932   -6.7432    4.0396 H         1 <0>         0.1561
     26 H10         0.1104   -6.6904    0.3362 H         1 <0>         0.4134
@<TRIPOS>BOND
     1    1    2 1
     2    1   17 1
     3    1   18 1
     4    1   19 1
     5    2    7 ar
     6    2    3 ar
     7    3    4 ar
     8    3   20 1
     9    4    5 ar
    10    4   21 1
    11    5    6 ar
    12    5    9 1
    13    6    7 ar
    14    6   22 1
    15    7    8 1
    16    9   10 1
    17    9   23 1
    18   10   15 1
    19   10   11 2
    20   11   12 1
    21   12   24 1
    22   12   13 2
    23   13   14 1
    24   13   25 1
    25   14   16 2
    26   14   15 am
    27   15   26 1
@<TRIPOS>MOLECULE
ZINC64034327
   35    36     0     0     0
SMALL
USER_CHARGES

@<TRIPOS>ATOM
      1 C1         -0.2305    0.9967   -1.2125 C.3       1 <0>        -0.1331
      2 C2          0.0481    0.0234   -0.0653 C.3       1 <0>        -0.0488
      3 C3          0.4778    0.8077    1.1760 C.3       1 <0>        -0.1471
      4 C4         -1.2207   -0.7722    0.2480 C.3       1 <0>        -0.1547
      5 C5          1.1657   -0.9388   -0.4729 C.3       1 <0>         0.1891
      6 C6          1.1005   -2.2510    0.3256 C.3       1 <0>        -0.0252
      7 N1          2.4864   -2.7158    0.4940 N.4       1 <0>        -0.5056
      8 C7          3.4063   -1.5968    0.2435 C.3       1 <0>        -0.0054
      9 C8          2.5674   -0.3645   -0.1325 C.3       1 <0>        -0.1280
     10 H1          2.5464    0.3950    0.6490 H         1 <0>         0.1317
     11 C9          3.0622    0.1610   -1.5063 C.3       1 <0>        -0.1272
     12 C10         2.4701   -0.8903   -2.4771 C.3       1 <0>         0.1089
     13 N2          1.1443   -1.2079   -1.9149 N.am      1 <0>        -0.6471
     14 C11         0.0938   -1.6913   -2.6071 C.2       1 <0>         0.6701
     15 O1         -0.9116   -2.0588   -2.0154 O.co2     1 <0>        -0.6939
     16 O2          0.1458   -1.7626   -3.8270 O.co2     1 <0>        -0.6947
     17 H2          0.6733    1.5635   -1.4357 H         1 <0>         0.0456
     18 H3         -0.5367    0.4379   -2.0968 H         1 <0>         0.0757
     19 H4         -1.0268    1.6821   -0.9221 H         1 <0>         0.0493
     20 H5         -0.3749    1.3610    1.5695 H         1 <0>         0.0633
     21 H6          0.8432    0.1156    1.9347 H         1 <0>         0.0477
     22 H7          1.2714    1.5054    0.9083 H         1 <0>         0.0584
     23 H8         -1.7515   -0.9896   -0.6789 H         1 <0>         0.1099
     24 H9         -0.9513   -1.7067    0.7402 H         1 <0>         0.0429
     25 H10        -1.8632   -0.1871    0.9060 H         1 <0>         0.0401
     26 H11         0.6465   -2.0720    1.3002 H         1 <0>         0.1316
     27 H12         0.5226   -2.9937   -0.2244 H         1 <0>         0.1477
     28 H13         2.6162   -3.0546    1.4355 H         1 <0>         0.4224
     29 H14         3.9855   -1.3877    1.1429 H         1 <0>         0.1281
     30 H15         4.0784   -1.8491   -0.5768 H         1 <0>         0.1290
     31 H16         2.6600    1.1528   -1.7125 H         1 <0>         0.0884
     32 H17         4.1512    0.1657   -1.5530 H         1 <0>         0.0828
     33 H18         2.3590   -0.4654   -3.4747 H         1 <0>         0.0798
     34 H19         3.1042   -1.7763   -2.5097 H         1 <0>         0.0406
     35 H20         2.6743   -3.4598   -0.1610 H         1 <0>         0.4275
@<TRIPOS>BOND
     1    1    2 1
     2    1   17 1
     3    1   18 1
     4    1   19 1
     5    2    3 1
     6    2    4 1
     7    2    5 1
     8    3   20 1
     9    3   21 1
    10    3   22 1
    11    4   23 1
    12    4   24 1
    13    4   25 1
    14    5    9 1
    15    5   13 1
    16    5    6 1
    17    6    7 1
    18    6   26 1
    19    6   27 1
    20    7    8 1
    21    7   28 1
    22    7   35 1
    23    8    9 1
    24    8   29 1
    25    8   30 1
    26    9   10 1
    27    9   11 1
    28   11   12 1
    29   11   31 1
    30   11   32 1
    31   12   13 1
    32   12   33 1
    33   12   34 1
    34   13   14 am
    35   14   15 2
    36   14   16 1
@<TRIPOS>MOLECULE
ZINC35454528
   32    33     0     0     0
SMALL
USER_CHARGES

@<TRIPOS>ATOM
      1 C1          1.0519   -0.3907    0.8715 C.ar      1 <0>        -0.0935
      2 C2          2.2408    0.3093    0.8502 C.ar      1 <0>        -0.1028
      3 C3          2.3849    1.4103    0.0048 C.ar      1 <0>        -0.1032
      4 C4          1.3238    1.7969   -0.8153 C.ar      1 <0>        -0.1009
      5 C5          0.1382    1.0880   -0.7851 C.ar      1 <0>         0.0987
      6 C6          0.0030   -0.0042    0.0572 C.ar      1 <0>        -0.1285
      7 F1         -0.8907    1.4603   -1.5775 F         1 <0>        -0.1320
      8 C7          3.6564    2.1643   -0.0217 C.2       1 <0>         0.5664
      9 O1          3.6427    3.3756   -0.1220 O.2       1 <0>        -0.5235
     10 N1          4.8307    1.5086    0.0652 N.am      1 <0>        -0.6071
     11 C8          4.8771    0.0385    0.0534 C.3       1 <0>         0.0530
     12 C9          5.8902   -0.4080   -1.0061 C.3       1 <0>         0.0450
     13 N2          7.1784    0.2522   -0.7561 N.3       1 <0>        -0.6651
     14 C10         7.0646    1.7106   -0.8897 C.3       1 <0>         0.0568
     15 H1          6.6845    1.9565   -1.8813 H         1 <0>         0.1101
     16 C11         6.1002    2.2441    0.1684 C.3       1 <0>         0.0854
     17 C12         8.4207    2.3403   -0.7007 C.2       1 <0>         0.5289
     18 O2          9.2999    1.7276   -0.1327 O.2       1 <0>        -0.5268
     19 N3          8.6564    3.5842   -1.1627 N.am      1 <0>        -0.8515
     20 H2          0.9417   -1.2454    1.5224 H         1 <0>         0.1432
     21 H3          3.0585    0.0059    1.4872 H         1 <0>         0.1388
     22 H4          1.4290    2.6482   -1.4715 H         1 <0>         0.1456
     23 H5         -0.9253   -0.5560    0.0776 H         1 <0>         0.1434
     24 H6          5.1869   -0.3259    1.0329 H         1 <0>         0.0782
     25 H7          3.8916   -0.3569   -0.1926 H         1 <0>         0.1052
     26 H8          6.0191   -1.4890   -0.9532 H         1 <0>         0.1007
     27 H9          5.5264   -0.1327   -1.9960 H         1 <0>         0.0828
     28 H10         7.5445   -0.0005    0.1496 H         1 <0>         0.3570
     29 H11         5.9229    3.3060   -0.0017 H         1 <0>         0.1063
     30 H12         6.5298    2.0957    1.1591 H         1 <0>         0.0794
     31 H13         7.9532    4.0742   -1.6170 H         1 <0>         0.4036
     32 H14         9.5292    3.9895   -1.0410 H         1 <0>         0.4065
@<TRIPOS>BOND
     1    1    6 ar
     2    1    2 ar
     3    1   20 1
     4    2    3 ar
     5    2   21 1
     6    3    4 ar
     7    3    8 1
     8    4    5 ar
     9    4   22 1
    10    5    6 ar
    11    5    7 1
    12    6   23 1
    13    8    9 2
    14    8   10 am
    15   10   16 1
    16   10   11 1
    17   11   12 1
    18   11   24 1
    19   11   25 1
    20   12   13 1
    21   12   26 1
    22   12   27 1
    23   13   14 1
    24   13   28 1
    25   14   15 1
    26   14   16 1
    27   14   17 1
    28   16   29 1
    29   16   30 1
    30   17   18 2
    31   17   19 am
    32   19   31 1
    33   19   32 1
@<TRIPOS>MOLECULE
ZINC40397075
   28    29     0     0     0
SMALL
USER_CHARGES

@<TRIPOS>ATOM
      1 C1         -0.0184    1.5028    0.0103 C.3       1 <0>        -0.1218
      2 C2          0.0021   -0.0041    0.0020 C.ar      1 <0>        -0.0623
      3 C3          0.0057   -0.6888   -1.1991 C.ar      1 <0>        -0.1175
      4 C4          0.0245   -2.0707   -1.2067 C.ar      1 <0>        -0.1097
      5 C5          0.0400   -2.7685   -0.0132 C.ar      1 <0>        -0.1285
      6 C6          0.0373   -2.0840    1.1875 C.ar      1 <0>        -0.0371
      7 C7          0.0229   -0.7015    1.1951 C.ar      1 <0>        -0.1155
      8 C8          0.0538   -2.8445    2.4885 C.3       1 <0>        -0.1405
      9 C9          0.0595   -4.2753   -0.0215 C.3       1 <0>         0.2112
     10 H1          0.6582   -4.6356    0.8151 H         1 <0>         0.1517
     11 C10        -1.3486   -4.7966    0.1074 C.2       1 <0>        -0.0095
     12 N1         -2.2750   -4.8124   -0.8400 N.2       1 <0>        -0.3701
     13 N2         -3.3396   -5.3361   -0.3352 N.2       1 <0>        -0.1594
     14 N3         -3.1118   -5.6480    0.8931 N.2       1 <0>        -0.1611
     15 N4         -1.8969   -5.3326    1.1880 N.2       1 <0>        -0.3439
     16 N5          0.6441   -4.7505   -1.2826 N.4       1 <0>        -0.6281
     17 H2          1.0042    1.8801    0.0026 H         1 <0>         0.0761
     18 H3         -0.5455    1.8639   -0.8728 H         1 <0>         0.0710
     19 H4         -0.5286    1.8543    0.9071 H         1 <0>         0.0711
     20 H5         -0.0064   -0.1437   -2.1314 H         1 <0>         0.1298
     21 H6          0.0266   -2.6056   -2.1449 H         1 <0>         0.1167
     22 H7          0.0246   -0.1666    2.1333 H         1 <0>         0.1308
     23 H8          1.0853   -3.0146    2.7969 H         1 <0>         0.0764
     24 H9         -0.4637   -2.2663    3.2539 H         1 <0>         0.0743
     25 H10        -0.4484   -3.8028    2.3555 H         1 <0>         0.0924
     26 H11         0.0898   -4.4171   -2.0569 H         1 <0>         0.4360
     27 H12         1.5869   -4.4015   -1.3688 H         1 <0>         0.4306
     28 H13         0.6571   -5.7594   -1.2881 H         1 <0>         0.4367
@<TRIPOS>BOND
     1    1    2 1
     2    1   17 1
     3    1   18 1
     4    1   19 1
     5    2    7 ar
     6    2    3 ar
     7    3    4 ar
     8    3   20 1
     9    4    5 ar
    10    4   21 1
    11    5    6 ar
    12    5    9 1
    13    6    7 ar
    14    6    8 1
    15    7   22 1
    16    8   23 1
    17    8   24 1
    18    8   25 1
    19    9   10 1
    20    9   11 1
    21    9   16 1
    22   11   15 2
    23   11   12 1
    24   12   13 1
    25   13   14 2
    26   14   15 1
    27   16   26 1
    28   16   27 1
    29   16   28 1
@<TRIPOS>MOLECULE
ZINC45951777
   21    22     0     0     0
SMALL
USER_CHARGES

@<TRIPOS>ATOM
      1 C1         -0.9524    1.0717   -0.5202 C.3       1 <0>        -0.1835
      2 C2          0.3863    1.4735    0.1021 C.3       1 <0>        -0.1342
      3 C3          0.0021   -0.0041    0.0020 C.3       1 <0>         0.0364
      4 N1         -0.3674   -0.6924    1.2413 N.am      1 <0>        -0.5164
      5 C4         -1.4964   -1.4750    1.2777 C.2       1 <0>         0.5250
      6 C5         -1.8331   -2.1140    2.4386 C.2       1 <0>        -0.3898
      7 C6         -1.0139   -1.9535    3.5675 C.2       1 <0>         0.5762
      8 O1         -1.2943   -2.5140    4.6134 O.2       1 <0>        -0.5061
      9 N2          0.0843   -1.1766    3.4879 N.am      1 <0>        -0.6587
     10 H1          0.6516   -1.0649    4.2668 H         1 <0>         0.4355
     11 C7          0.4037   -0.5591    2.3361 C.2       1 <0>         0.7127
     12 O2          1.4019    0.1332    2.2847 O.2       1 <0>        -0.5213
     13 Br1        -3.3804   -3.1978    2.5226 Br        1 <0>         0.0061
     14 N3         -2.2789   -1.6136    0.1591 N.pl3     1 <0>        -0.8210
     15 H2         -1.8552    1.2672    0.0584 H         1 <0>         0.1058
     16 H3         -1.0553    1.1717   -1.6007 H         1 <0>         0.1210
     17 H4          1.1641    1.8379   -0.5690 H         1 <0>         0.1182
     18 H5          0.3642    1.9335    1.0901 H         1 <0>         0.1102
     19 H6          0.5271   -0.6118   -0.7350 H         1 <0>         0.1428
     20 H7         -2.0361   -1.1580   -0.6621 H         1 <0>         0.4129
     21 H8         -3.0749   -2.1671    0.1896 H         1 <0>         0.4281
@<TRIPOS>BOND
     1    1    3 1
     2    1    2 1
     3    1   15 1
     4    1   16 1
     5    2    3 1
     6    2   17 1
     7    2   18 1
     8    3    4 1
     9    3   19 1
    10    4   11 am
    11    4    5 1
    12    5    6 2
    13    5   14 1
    14    6    7 1
    15    6   13 1
    16    7    8 2
    17    7    9 am
    18    9   10 1
    19    9   11 am
    20   11   12 2
    21   14   20 1
    22   14   21 1
@<TRIPOS>MOLECULE
ZINC50752663
   28    29     0     0     0
SMALL
USER_CHARGES

@<TRIPOS>ATOM
      1 C1         -0.0178    1.4608    0.0101 C.3       1 <0>         0.0859
      2 N1          0.0021   -0.0041    0.0020 N.pl3     1 <0>        -0.7432
      3 C2          0.6036   -0.6855   -1.0504 C.ar      1 <0>         0.2432
      4 C3          1.1916    0.0258   -2.0927 C.ar      1 <0>        -0.2081
      5 C4          1.7876   -0.6456   -3.1356 C.ar      1 <0>        -0.0032
      6 C5          1.8028   -2.0434   -3.1474 C.ar      1 <0>        -0.2006
      7 C6          1.2119   -2.7548   -2.0990 C.ar      1 <0>        -0.0342
      8 C7          0.6217   -2.0775   -1.0566 C.ar      1 <0>        -0.2057
      9 C8          2.4404   -2.7663   -4.2640 C.2       1 <0>         0.5682
     10 O1          2.9537   -2.1461   -5.1757 O.2       1 <0>        -0.5319
     11 N2          2.4542   -4.1139   -4.2740 N.am      1 <0>        -0.6436
     12 C9          3.0625   -4.8035   -5.3392 C.2       1 <0>         0.0024
     13 C10         3.1425   -6.1517   -5.4770 C.2       1 <0>         0.0197
     14 N3          3.8030   -6.4067   -6.6361 N.pl3     1 <0>        -0.4748
     15 H1          4.0084   -7.2842   -6.9950 H         1 <0>         0.4446
     16 N4          4.1350   -5.1783   -7.2215 N.2       1 <0>        -0.2824
     17 C11         3.6887   -4.2201   -6.4505 C.2       1 <0>         0.0549
     18 H2          1.0048    1.8381    0.0023 H         1 <0>         0.0574
     19 H3         -0.5450    1.8219   -0.8730 H         1 <0>         0.0574
     20 H4         -0.5280    1.8123    0.9069 H         1 <0>         0.0768
     21 H5         -0.4044   -0.4986    0.7308 H         1 <0>         0.4038
     22 H6          1.1795    1.1057   -2.0830 H         1 <0>         0.1294
     23 H7          2.2430   -0.0932   -3.9443 H         1 <0>         0.1372
     24 H8          1.2216   -3.8347   -2.1055 H         1 <0>         0.1241
     25 H9          0.1683   -2.6265   -0.2445 H         1 <0>         0.1272
     26 H10         2.0448   -4.6085   -3.5469 H         1 <0>         0.4084
     27 H11         2.7524   -6.8877   -4.7896 H         1 <0>         0.1799
     28 H12         3.7879   -3.1609   -6.6365 H         1 <0>         0.2073
@<TRIPOS>BOND
     1    1    2 1
     2    1   18 1
     3    1   19 1
     4    1   20 1
     5    2    3 1
     6    2   21 1
     7    3    8 ar
     8    3    4 ar
     9    4    5 ar
    10    4   22 1
    11    5    6 ar
    12    5   23 1
    13    6    7 ar
    14    6    9 1
    15    7    8 ar
    16    7   24 1
    17    8   25 1
    18    9   10 2
    19    9   11 am
    20   11   12 1
    21   11   26 1
    22   12   17 1
    23   12   13 2
    24   13   14 1
    25   13   27 1
    26   14   15 1
    27   14   16 1
    28   16   17 2
    29   17   28 1
@<TRIPOS>MOLECULE
ZINC38591451
   32    34     0     0     0
SMALL
USER_CHARGES

@<TRIPOS>ATOM
      1 C1         -0.0225    1.8097    0.0120 C.3       1 <0>        -0.1284
      2 S1          0.0021   -0.0041    0.0020 S.3       1 <0>        -0.0542
      3 C2         -1.7016   -0.4536    0.0159 C.2       1 <0>         0.3788
      4 N1         -2.5683    0.5264    0.0242 N.2       1 <0>        -0.5945
      5 C3         -3.9974    0.2220    0.0930 C.3       1 <0>         0.2402
      6 H1         -4.3228    0.1660    1.1318 H         1 <0>         0.1193
      7 C4         -4.1518   -1.1346   -0.5863 C.2       1 <0>        -0.1837
      8 C5         -5.1245   -0.9997   -1.4713 C.2       1 <0>        -0.0640
      9 C6         -5.8038   -2.0622   -2.3075 C.3       1 <0>        -0.0608
     10 C7         -6.4927   -1.3662   -3.4881 C.3       1 <0>        -0.1237
     11 C8         -7.3979   -0.2466   -2.9693 C.3       1 <0>        -0.1200
     12 C9         -6.5422    0.9425   -2.5156 C.3       1 <0>        -0.0608
     13 C10        -5.5087    0.4275   -1.5360 C.2       1 <0>         0.1606
     14 N2         -4.8509    1.1334   -0.6557 N.2       1 <0>        -0.4410
     15 C11        -3.2022   -2.2167   -0.2803 C.2       1 <0>         0.4630
     16 N3         -1.9790   -1.7659    0.0115 N.2       1 <0>        -0.6815
     17 N4         -3.5370   -3.5484   -0.2982 N.2       1 <0>        -0.5411
     18 N5         -2.5962   -4.4933   -0.0017 N.4       1 <0>        -0.4274
     19 H2          1.0001    2.1870    0.0043 H         1 <0>         0.1021
     20 H3         -0.5497    2.1708   -0.8711 H         1 <0>         0.0842
     21 H4         -0.5327    2.1613    0.9088 H         1 <0>         0.0856
     22 H5         -5.0620   -2.7695   -2.6784 H         1 <0>         0.0815
     23 H6         -6.5455   -2.5868   -1.7051 H         1 <0>         0.0880
     24 H7         -5.7375   -0.9441   -4.1511 H         1 <0>         0.0656
     25 H8         -7.0921   -2.0921   -4.0375 H         1 <0>         0.0730
     26 H9         -8.0708    0.0735   -3.7648 H         1 <0>         0.0769
     27 H10        -7.9831   -0.6147   -2.1266 H         1 <0>         0.0691
     28 H11        -6.0440    1.3879   -3.3767 H         1 <0>         0.0928
     29 H12        -7.1731    1.6861   -2.0286 H         1 <0>         0.0919
     30 H13        -2.2502   -4.3415    0.9339 H         1 <0>         0.3886
     31 H14        -3.0107   -5.4112   -0.0622 H         1 <0>         0.4317
     32 H15        -1.8327   -4.4251   -0.6579 H         1 <0>         0.3884
@<TRIPOS>BOND
     1    1    2 1
     2    1   19 1
     3    1   20 1
     4    1   21 1
     5    2    3 1
     6    3   16 1
     7    3    4 2
     8    4    5 1
     9    5    6 1
    10    5   14 1
    11    5    7 1
    12    7    8 2
    13    7   15 1
    14    8   13 1
    15    8    9 1
    16    9   10 1
    17    9   22 1
    18    9   23 1
    19   10   11 1
    20   10   24 1
    21   10   25 1
    22   11   12 1
    23   11   26 1
    24   11   27 1
    25   12   13 1
    26   12   28 1
    27   12   29 1
    28   13   14 2
    29   15   16 2
    30   15   17 1
    31   17   18 1
    32   18   30 1
    33   18   31 1
    34   18   32 1
@<TRIPOS>MOLECULE
ZINC21789265
   20    20     0     0     0
SMALL
USER_CHARGES
4-cyanobenzenesulfonohydrazide
@<TRIPOS>ATOM
      1 C1         -2.5610    1.4015    3.1172 C.ar      1 <0>        -0.0898
      2 C2         -1.8458    1.0297    1.9978 C.ar      1 <0>        -0.0179
      3 C3         -0.9267    1.9002    1.4394 C.ar      1 <0>        -0.6631
      4 C4         -0.7144    3.1464    2.0018 C.ar      1 <0>        -0.0474
      5 C5         -1.4265    3.5333    3.1181 C.ar      1 <0>        -0.0924
      6 C6         -2.3556    2.6597    3.6868 C.ar      1 <0>         0.0201
      7 C7         -3.0948    3.0526    4.8487 C.1       1 <0>         0.2423
      8 N1         -3.6812    3.3643    5.7703 N.1       1 <0>        -0.3949
      9 S1         -0.0172    1.4168    0.0098 S.o2      1 <0>         2.5924
     10 O1          0.0021   -0.0041    0.0020 O.2       1 <0>        -0.9527
     11 O2          1.1718    2.1948    0.0027 O.2       1 <0>        -1.0153
     12 N2         -0.8975    1.8855   -1.3122 N.2       1 <0>        -0.9751
     13 N3         -1.1963    3.2049   -1.5010 N.4       1 <0>        -0.4212
     14 H1         -3.2779    0.7209    3.5523 H         1 <0>         0.1424
     15 H2         -2.0039    0.0569    1.5560 H         1 <0>         0.1517
     16 H3          0.0074    3.8195    1.5633 H         1 <0>         0.1456
     17 H4         -1.2631    4.5080    3.5535 H         1 <0>         0.1409
     18 H5         -1.7821    3.3196   -2.4249 H         1 <0>         0.4540
     19 H6         -0.2645    3.7837   -1.5834 H         1 <0>         0.3976
     20 H7         -1.7829    3.5739   -0.6467 H         1 <0>         0.3829
@<TRIPOS>BOND
     1    1    6 ar
     2    1    2 ar
     3    1   14 1
     4    2    3 ar
     5    2   15 1
     6    3    4 ar
     7    3    9 1
     8    4    5 ar
     9    4   16 1
    10    5    6 ar
    11    5   17 1
    12    6    7 1
    13    7    8 3
    14    9   10 2
    15    9   11 2
    16    9   12 1
    17   12   13 1
    18   13   18 1
    19   13   19 1
    20   13   20 1
@<TRIPOS>MOLECULE
ZINC39053965
   19    19     0     0     0
SMALL
USER_CHARGES

@<TRIPOS>ATOM
      1 C1         -0.0169    1.3920    0.0097 C.ar      1 <0>        -0.0766
      2 C2          1.1701    2.0948    0.0021 C.ar      1 <0>        -0.0241
      3 C3          2.3776    1.4193   -0.0130 C.ar      1 <0>        -0.6553
      4 C4          2.4036    0.0359   -0.0207 C.ar      1 <0>        -0.0233
      5 C5          1.2241   -0.6793   -0.0137 C.ar      1 <0>        -0.1181
      6 C6          0.0021   -0.0041    0.0020 C.ar      1 <0>         0.0808
      7 N1         -1.1734   -0.7084    0.0099 N.2       1 <0>        -0.1720
      8 N2         -1.1534   -1.9482    0.0031 N.2       1 <0>        -0.3658
      9 S1          3.8891    2.3249   -0.0232 S.o2      1 <0>         2.7024
     10 O1          4.8720    1.4681   -0.5879 O.2       1 <0>        -0.9588
     11 O2          3.5921    3.6046   -0.5647 O.2       1 <0>        -0.9582
     12 N3          4.3245    2.5686    1.5559 N.pl3     1 <0>        -1.2488
     13 H1         -0.9586    1.9205    0.0260 H         1 <0>         0.1496
     14 H2          1.1569    3.1747    0.0077 H         1 <0>         0.1552
     15 H3          3.3495   -0.4852   -0.0325 H         1 <0>         0.1503
     16 H4          1.2457   -1.7591   -0.0205 H         1 <0>         0.1502
     17 H5         -1.9855   -2.4468    0.0086 H         1 <0>         0.3723
     18 H6          3.7660    2.2262    2.2713 H         1 <0>         0.4173
     19 H7          5.1379    3.0536    1.7653 H         1 <0>         0.4229
@<TRIPOS>BOND
     1    1    6 ar
     2    1    2 ar
     3    1   13 1
     4    2    3 ar
     5    2   14 1
     6    3    4 ar
     7    3    9 1
     8    4    5 ar
     9    4   15 1
    10    5    6 ar
    11    5   16 1
    12    6    7 1
    13    7    8 2
    14    8   17 1
    15    9   10 2
    16    9   11 2
    17    9   12 1
    18   12   18 1
    19   12   19 1
@<TRIPOS>MOLECULE
ZINC48265880
   30    31     0     0     0
SMALL
USER_CHARGES

@<TRIPOS>ATOM
      1 C1          2.5036   -0.9782    1.4349 C.3       1 <0>        -0.1221
      2 C2          1.2092   -1.2369    0.7078 C.ar      1 <0>        -0.0715
      3 C3          1.2207   -1.8778   -0.5172 C.ar      1 <0>        -0.1149
      4 C4          0.0336   -2.1150   -1.1841 C.ar      1 <0>        -0.1095
      5 C5         -1.1654   -1.7120   -0.6260 C.ar      1 <0>        -0.1185
      6 C6         -1.1769   -1.0722    0.5991 C.ar      1 <0>        -0.1042
      7 C7          0.0102   -0.8386    1.2682 C.ar      1 <0>        -0.1159
      8 C8         -0.0028   -0.1457    2.6064 C.3       1 <0>         0.1491
      9 N1         -1.3880    0.0916    3.0200 N.am      1 <0>        -0.5447
     10 C9         -2.0377    1.2304    2.6096 C.2       1 <0>         0.4833
     11 C10        -3.3304    1.4436    3.0005 C.2       1 <0>        -0.4062
     12 C11        -3.9628    0.4902    3.8138 C.2       1 <0>         0.5639
     13 O1         -5.1152    0.6590    4.1742 O.2       1 <0>        -0.5306
     14 N2         -3.2885   -0.6131    4.1934 N.am      1 <0>        -0.6645
     15 H1         -3.7240   -1.2732    4.7552 H         1 <0>         0.4306
     16 C12        -2.0185   -0.8098    3.7951 C.2       1 <0>         0.7120
     17 O2         -1.4302   -1.8147    4.1446 O.2       1 <0>        -0.5320
     18 N3         -1.3952    2.1454    1.8154 N.pl3     1 <0>        -0.8352
     19 H2          2.6818   -1.7771    2.1548 H         1 <0>         0.0774
     20 H3          3.3234   -0.9462    0.7173 H         1 <0>         0.0719
     21 H4          2.4417   -0.0243    1.9587 H         1 <0>         0.0665
     22 H5          2.1572   -2.1926   -0.9532 H         1 <0>         0.1269
     23 H6          0.0426   -2.6150   -2.1414 H         1 <0>         0.1255
     24 H7         -2.0930   -1.8968   -1.1475 H         1 <0>         0.1241
     25 H8         -2.1135   -0.7570    1.0349 H         1 <0>         0.1142
     26 H9          0.4946   -0.7737    3.3455 H         1 <0>         0.1236
     27 H10         0.5211    0.8068    2.5274 H         1 <0>         0.1027
     28 H11        -3.8573    2.3331    2.6882 H         1 <0>         0.1648
     29 H12        -0.4570    2.0264    1.5999 H         1 <0>         0.4063
     30 H13        -1.8790    2.9115    1.4693 H         1 <0>         0.4271
@<TRIPOS>BOND
     1    1    2 1
     2    1   19 1
     3    1   20 1
     4    1   21 1
     5    2    7 ar
     6    2    3 ar
     7    3    4 ar
     8    3   22 1
     9    4    5 ar
    10    4   23 1
    11    5    6 ar
    12    5   24 1
    13    6    7 ar
    14    6   25 1
    15    7    8 1
    16    8    9 1
    17    8   26 1
    18    8   27 1
    19    9   16 am
    20    9   10 1
    21   10   11 2
    22   10   18 1
    23   11   12 1
    24   11   28 1
    25   12   13 2
    26   12   14 am
    27   14   15 1
    28   14   16 am
    29   16   17 2
    30   18   29 1
    31   18   30 1
@<TRIPOS>MOLECULE
ZINC49776713
   34    35     0     0     0
SMALL
NO_CHARGES

@<TRIPOS>ATOM
      1 C1         -0.8003    5.3471   -2.7568 C.3       1 <0>        -0.0846
      2 C2         -1.3189    3.9625   -3.0482 C.2       1 <0>         0.2613
      3 N1         -2.2865    3.4100   -2.3866 N.2       1 <0>        -0.5367
      4 H1         -2.3034    1.2948   -2.2366 H         1 <0>         0.1001
      5 C3         -2.4857    2.0740   -2.9767 C.3       1 <0>         0.2902
      6 C4         -1.4404    2.0256   -4.0750 C.cat     1 <0>         0.0315
      7 N2         -0.8306    3.1835   -4.0190 N.pl3     1 <0>        -0.5576
      8 N3         -1.1934    1.0030   -4.9355 N.pl3     1 <0>        -0.7913
      9 N4         -3.8383    1.9499   -3.5363 N.3       1 <0>        -0.5111
     10 C5         -4.0751    2.9658   -4.5722 C.3       1 <0>         0.0343
     11 C6         -5.5122    2.8390   -5.0847 C.3       1 <0>         0.0881
     12 H2         -6.2081    3.0445   -4.2714 H         1 <0>         0.0666
     13 O1         -5.7242    1.5107   -5.5705 O.3       1 <0>        -0.3833
     14 C7         -5.5030    0.4959   -4.5873 C.3       1 <0>         0.0695
     15 C8         -4.0658    0.5990   -4.0698 C.3       1 <0>         0.0405
     16 H3         -3.3702    0.4085   -4.8870 H         1 <0>         0.0533
     17 C9         -3.8471   -0.4319   -2.9606 C.3       1 <0>        -0.1500
     18 C10        -5.7407    3.8410   -6.2181 C.3       1 <0>        -0.1435
     19 H4         -1.3608    5.7779   -1.9272 H         1 <0>         0.0944
     20 H5          0.2556    5.2913   -2.4919 H         1 <0>         0.0760
     21 H6         -0.9205    5.9736   -3.6407 H         1 <0>         0.0753
     22 H7         -1.5989    0.1346   -4.7859 H         1 <0>         0.4116
     23 H8         -0.6116    1.1415   -5.6991 H         1 <0>         0.3927
     24 H9         -3.9260    3.9591   -4.1488 H         1 <0>         0.0847
     25 H10        -3.3796    2.8131   -5.3975 H         1 <0>         0.0385
     26 H11        -6.1987    0.6333   -3.7595 H         1 <0>         0.0601
     27 H12        -5.6589   -0.4853   -5.0356 H         1 <0>         0.0968
     28 H13        -4.4596   -0.1722   -2.0972 H         1 <0>         0.0710
     29 H14        -4.1297   -1.4205   -3.3225 H         1 <0>         0.0648
     30 H15        -2.7960   -0.4375   -2.6719 H         1 <0>         0.0565
     31 H16        -5.0455    3.6340   -7.0317 H         1 <0>         0.0594
     32 H17        -6.7639    3.7503   -6.5825 H         1 <0>         0.0666
     33 H18        -5.5753    4.8527   -5.8475 H         1 <0>         0.0718
     34 H19        -0.1074    3.4442   -4.6106 H         1 <0>         0.4023
@<TRIPOS>BOND
     1    1   19 1
     2    1   20 1
     3    1   21 1
     4    1    2 1
     5    2    3 2
     6    2    7 1
     7    3    5 1
     8    4    5 1
     9    5    9 1
    10    5    6 1
    11    6    7 2
    12    6    8 1
    13    7   34 1
    14    8   22 1
    15    8   23 1
    16    9   15 1
    17    9   10 1
    18   10   11 1
    19   10   24 1
    20   10   25 1
    21   11   12 1
    22   11   13 1
    23   11   18 1
    24   13   14 1
    25   14   15 1
    26   14   26 1
    27   14   27 1
    28   15   16 1
    29   15   17 1
    30   17   28 1
    31   17   29 1
    32   17   30 1
    33   18   31 1
    34   18   32 1
    35   18   33 1
@<TRIPOS>MOLECULE
ZINC67312188
   35    36     0     0     0
SMALL
USER_CHARGES

@<TRIPOS>ATOM
      1 C1         -0.2268    1.2714    0.4756 C.3       1 <0>        -0.1280
      2 C2         -0.1432   -0.2198    0.2749 C.ar      1 <0>        -0.0336
      3 C3         -0.1692   -0.7470   -1.0004 C.ar      1 <0>        -0.1111
      4 C4         -0.0928   -2.1140   -1.1898 C.ar      1 <0>        -0.1123
      5 C5          0.0108   -2.9670   -0.0974 C.ar      1 <0>         0.1450
      6 C6          0.0382   -2.4476    1.1872 C.ar      1 <0>        -0.0812
      7 C7         -0.0336   -1.0676    1.3782 C.ar      1 <0>        -0.1293
      8 C8          0.0007   -0.5052    2.7453 C.2       1 <0>         0.5661
      9 O1         -0.1301    0.6915    2.9136 O.2       1 <0>        -0.5339
     10 N1          0.1770   -1.3194    3.8047 N.am      1 <0>        -0.8491
     11 N2          0.0870   -4.3507   -0.2946 N.am      1 <0>        -0.6834
     12 C9         -0.4977   -5.1897    0.5832 C.2       1 <0>         0.7221
     13 O2         -1.0125   -4.7505    1.5934 O.2       1 <0>        -0.5726
     14 N3         -0.5118   -6.5155    0.3414 N.am      1 <0>        -0.6329
     15 C10         0.0762   -7.1787   -0.8316 C.3       1 <0>         0.0933
     16 C11        -0.2048   -8.6898   -0.6924 C.3       1 <0>        -0.1305
     17 C12        -1.4254   -8.7295    0.2647 C.3       1 <0>        -0.1351
     18 C13        -1.1136   -7.5414    1.2123 C.3       1 <0>         0.1221
     19 H1          0.7765    1.6776    0.6040 H         1 <0>         0.0734
     20 H2         -0.6956    1.7295   -0.3953 H         1 <0>         0.0589
     21 H3         -0.8219    1.4857    1.3634 H         1 <0>         0.1022
     22 H4         -0.2500   -0.0892   -1.8532 H         1 <0>         0.1357
     23 H5         -0.1140   -2.5207   -2.1901 H         1 <0>         0.1308
     24 H6          0.1183   -3.1088    2.0374 H         1 <0>         0.1452
     25 H7          0.2814   -2.2744    3.6704 H         1 <0>         0.4027
     26 H8          0.1995   -0.9505    4.7015 H         1 <0>         0.4054
     27 H9          0.5606   -4.7057   -1.0631 H         1 <0>         0.4080
     28 H10        -0.3854   -6.7982   -1.7428 H         1 <0>         0.0689
     29 H11         1.1516   -7.0025   -0.8569 H         1 <0>         0.0688
     30 H12        -0.4583   -9.1256   -1.6588 H         1 <0>         0.0856
     31 H13         0.6494   -9.2017   -0.2494 H         1 <0>         0.0799
     32 H14        -2.3549   -8.5653   -0.2804 H         1 <0>         0.0783
     33 H15        -1.4587   -9.6688    0.8166 H         1 <0>         0.0889
     34 H16        -0.4074   -7.8448    1.9851 H         1 <0>         0.0702
     35 H17        -2.0320   -7.1652    1.6630 H         1 <0>         0.0817
@<TRIPOS>BOND
     1    1    2 1
     2    1   19 1
     3    1   20 1
     4    1   21 1
     5    2    7 ar
     6    2    3 ar
     7    3    4 ar
     8    3   22 1
     9    4    5 ar
    10    4   23 1
    11    5    6 ar
    12    5   11 1
    13    6    7 ar
    14    6   24 1
    15    7    8 1
    16    8    9 2
    17    8   10 am
    18   10   25 1
    19   10   26 1
    20   11   12 am
    21   11   27 1
    22   12   13 2
    23   12   14 am
    24   14   18 1
    25   14   15 1
    26   15   16 1
    27   15   28 1
    28   15   29 1
    29   16   17 1
    30   16   30 1
    31   16   31 1
    32   17   18 1
    33   17   32 1
    34   17   33 1
    35   18   34 1
    36   18   35 1
@<TRIPOS>MOLECULE
ZINC20469916
   36    39     0     0     0
SMALL
USER_CHARGES
(5E)-3-(4-amino-1,2,5-oxadiazol-3-yl)-5-[[3-(4-fluorophenyl)-1H-pyrazol-4-yl]methylene]-2-imino-thiazolidin-4-one
@<TRIPOS>ATOM
      1 C1         -8.8544    3.7303   -1.1162 C.ar      1 <0>        -0.0695
      2 C2        -10.2007    3.4315   -1.1536 C.ar      1 <0>        -0.1507
      3 C3        -11.1250    4.3222   -0.6318 C.ar      1 <0>         0.1120
      4 C4        -10.7019    5.5137   -0.0651 C.ar      1 <0>        -0.1517
      5 C5         -9.3572    5.8185   -0.0180 C.ar      1 <0>        -0.0574
      6 C6         -8.4235    4.9254   -0.5418 C.ar      1 <0>        -0.0310
      7 C7         -6.9776    5.2483   -0.4936 C.2       1 <0>         0.1519
      8 C8         -5.8771    4.2973   -0.3003 C.2       1 <0>        -0.2595
      9 C9         -4.7123    5.0416   -0.3182 C.2       1 <0>         0.1495
     10 N1         -5.0491    6.3280   -0.5135 N.pl3     1 <0>        -0.4718
     11 H1         -4.2666    7.0991   -0.5692 H         1 <0>         0.4785
     12 N2         -6.4385    6.4404   -0.6154 N.2       1 <0>        -0.2663
     13 C10        -5.9907    2.8457   -0.1178 C.2       1 <0>         0.1386
     14 C11        -5.1231    2.1941    0.6986 C.2       1 <0>        -0.2589
     15 C12        -4.1031    2.7447    1.6065 C.2       1 <0>         0.5572
     16 O1         -3.9314    3.9450    1.7156 O.2       1 <0>        -0.4758
     17 N3         -3.3788    1.8788    2.2950 N.am      1 <0>        -0.5200
     18 C13        -3.5946    0.5196    2.1594 C.2       1 <0>         0.3733
     19 N4         -2.9811   -0.4634    2.7586 N.2       1 <0>        -0.6163
     20 S1         -4.9174    0.4389    0.9629 S.3       1 <0>         0.0985
     21 C14        -2.3927    2.3405    3.1697 C.2       1 <0>         0.2574
     22 C15        -0.9675    2.4849    2.8572 C.2       1 <0>         0.3470
     23 N5         -0.3606    2.9476    3.9151 N.2       1 <0>        -0.3458
     24 O2         -1.3308    3.1148    4.9339 O.3       1 <0>         0.0500
     25 N6         -2.5818    2.7135    4.4042 N.2       1 <0>        -0.2348
     26 N7         -0.3666    2.1854    1.6396 N.pl3     1 <0>        -0.8320
     27 F1        -12.4428    4.0277   -0.6753 F         1 <0>        -0.1349
     28 H2         -8.1350    3.0377   -1.5275 H         1 <0>         0.1381
     29 H3        -10.5350    2.5038   -1.5940 H         1 <0>         0.1440
     30 H4        -11.4259    6.2048    0.3407 H         1 <0>         0.1419
     31 H5         -9.0283    6.7473    0.4242 H         1 <0>         0.1386
     32 H6         -3.7100    4.6574   -0.1988 H         1 <0>         0.1853
     33 H7         -6.7787    2.2854   -0.6424 H         1 <0>         0.1601
     34 H8         -2.1765   -0.2524    3.4783 H         1 <0>         0.3658
     35 H9          0.7160    2.3309    1.5100 H         1 <0>         0.4480
     36 H10        -0.9738    1.8030    0.8059 H         1 <0>         0.4408
@<TRIPOS>BOND
     1    1    6 ar
     2    1    2 ar
     3    1   28 1
     4    2    3 ar
     5    2   29 1
     6    3    4 ar
     7    3   27 1
     8    4    5 ar
     9    4   30 1
    10    5    6 ar
    11    5   31 1
    12    6    7 1
    13    7   12 2
    14    7    8 1
    15    8    9 2
    16    8   13 1
    17    9   10 1
    18    9   32 1
    19   10   11 1
    20   10   12 1
    21   13   14 2
    22   13   33 1
    23   14   20 1
    24   14   15 1
    25   15   16 2
    26   15   17 am
    27   17   18 1
    28   17   21 1
    29   18   19 2
    30   18   20 1
    31   19   34 1
    32   21   25 2
    33   21   22 1
    34   22   23 2
    35   22   26 1
    36   23   24 1
    37   24   25 1
    38   26   35 1
    39   26   36 1
@<TRIPOS>MOLECULE
ZINC03639064
   40    42     0     0     0
SMALL
USER_CHARGES

@<TRIPOS>ATOM
      1 C1         -0.0173    1.4248    0.0099 C.3       1 <0>         0.0263
      2 O1          0.0021   -0.0041    0.0020 O.3       1 <0>        -0.3170
      3 C2          0.6058   -0.6071   -1.0557 C.ar      1 <0>         0.1225
      4 C3          1.1730    0.1630   -2.0626 C.ar      1 <0>        -0.1909
      5 C4          1.7883   -0.4444   -3.1416 C.ar      1 <0>        -0.0837
      6 C5          1.8434   -1.8206   -3.2253 C.ar      1 <0>        -0.1141
      7 C6          1.2762   -2.6039   -2.2173 C.ar      1 <0>        -0.0192
      8 C7          0.6599   -1.9885   -1.1260 C.ar      1 <0>        -0.1234
      9 C8          1.3329   -4.0752   -2.3029 C.2       1 <0>         0.1118
     10 N1          1.9104   -4.6444   -3.3158 N.2       1 <0>        -0.2216
     11 N2          1.9643   -6.0420   -3.3971 N.am      1 <0>        -0.5840
     12 C9          2.5642   -6.6332   -4.4493 C.2       1 <0>         0.5023
     13 O2          3.0575   -5.9553   -5.3259 O.2       1 <0>        -0.4752
     14 C10         2.6221   -8.1366   -4.5367 C.3       1 <0>         0.1385
     15 N3          3.3201   -8.5279   -5.7638 N.am      1 <0>        -0.6190
     16 C11         2.6829   -8.7549   -7.0685 C.3       1 <0>         0.3263
     17 H1          1.9064   -9.5191   -7.0312 H         1 <0>         0.1436
     18 C12         3.8663   -9.1393   -7.9926 C.3       1 <0>         0.3307
     19 H2          3.7398  -10.1145   -8.4627 H         1 <0>         0.1457
     20 N4          3.9172   -8.0406   -8.9675 N.am      1 <0>        -0.7371
     21 C13         2.9505   -7.1567   -8.6902 C.2       1 <0>         0.7104
     22 O3          2.7679   -6.1478   -9.3436 O.2       1 <0>        -0.5650
     23 N5          2.1981   -7.4780   -7.6110 N.am      1 <0>        -0.7308
     24 N6          5.0344   -9.0844   -7.1026 N.am      1 <0>        -0.7354
     25 C14         4.6393   -8.7289   -5.8737 C.2       1 <0>         0.7126
     26 O4          5.4086   -8.6036   -4.9406 O.2       1 <0>        -0.5652
     27 H3          1.0053    1.8021    0.0021 H         1 <0>         0.0568
     28 H4         -0.5445    1.7859   -0.8732 H         1 <0>         0.0568
     29 H5         -0.5275    1.7763    0.9067 H         1 <0>         0.1020
     30 H6          1.1331    1.2406   -2.0028 H         1 <0>         0.1310
     31 H7          2.2268    0.1603   -3.9216 H         1 <0>         0.1306
     32 H8          2.3245   -2.2917   -4.0696 H         1 <0>         0.1366
     33 H9          0.2230   -2.5884   -0.3413 H         1 <0>         0.1371
     34 H10         0.8937   -4.6788   -1.5224 H         1 <0>         0.1243
     35 H11         1.5698   -6.5841   -2.6961 H         1 <0>         0.3870
     36 H12         3.1575   -8.5304   -3.6728 H         1 <0>         0.1253
     37 H13         1.6092   -8.5390   -4.5508 H         1 <0>         0.1210
     38 H14         4.5520   -7.9671   -9.6971 H         1 <0>         0.4344
     39 H15         1.4533   -6.9657   -7.2593 H         1 <0>         0.4330
     40 H16         5.9490   -9.2728   -7.3651 H         1 <0>         0.4350
@<TRIPOS>BOND
     1    1    2 1
     2    1   27 1
     3    1   28 1
     4    1   29 1
     5    2    3 1
     6    3    8 ar
     7    3    4 ar
     8    4    5 ar
     9    4   30 1
    10    5    6 ar
    11    5   31 1
    12    6    7 ar
    13    6   32 1
    14    7    8 ar
    15    7    9 1
    16    8   33 1
    17    9   10 2
    18    9   34 1
    19   10   11 1
    20   11   12 am
    21   11   35 1
    22   12   13 2
    23   12   14 1
    24   14   15 1
    25   14   36 1
    26   14   37 1
    27   15   25 am
    28   15   16 1
    29   16   17 1
    30   16   23 1
    31   16   18 1
    32   18   19 1
    33   18   20 1
    34   18   24 1
    35   20   21 am
    36   20   38 1
    37   21   22 2
    38   21   23 am
    39   23   39 1
    40   24   25 am
    41   24   40 1
    42   25   26 2
@<TRIPOS>MOLECULE
ZINC33794530
   36    38     0     0     0
SMALL
USER_CHARGES

@<TRIPOS>ATOM
      1 C1         -0.0167    1.3792    0.0096 C.ar      1 <0>        -0.0617
      2 C2          1.1674    2.0946    0.0022 C.ar      1 <0>        -0.1537
      3 C3          2.3792    1.4311   -0.0134 C.ar      1 <0>         0.1384
      4 C4          2.4060    0.0322   -0.0211 C.ar      1 <0>        -0.0818
      5 C5          1.2048   -0.6823   -0.0130 C.ar      1 <0>         0.0104
      6 C6          0.0021   -0.0041    0.0020 C.ar      1 <0>        -0.1266
      7 Cl1         1.2248   -2.4181   -0.0230 Cl        1 <0>        -0.0007
      8 C7          3.6942   -0.6842   -0.0382 C.2       1 <0>         0.0919
      9 N1          3.7150   -1.9818   -0.0453 N.2       1 <0>        -0.1922
     10 N2          4.9393   -2.6627   -0.0615 N.am      1 <0>        -0.5854
     11 C8          4.9609   -4.0103   -0.0689 C.2       1 <0>         0.5085
     12 O1          3.9202   -4.6337   -0.0615 O.2       1 <0>        -0.4800
     13 C9          6.2779   -4.7427   -0.0864 C.3       1 <0>         0.1404
     14 N3          6.0333   -6.1871   -0.0915 N.am      1 <0>        -0.6184
     15 C10         5.8928   -7.0586    1.0680 C.3       1 <0>         0.3020
     16 H1          4.8518   -7.2118    1.3526 H         1 <0>         0.1212
     17 C11         6.5690   -8.3271    0.4179 C.3       1 <0>         0.3242
     18 H2          7.5719   -7.9651    0.1915 H         1 <0>         0.0478
     19 N4          6.8123   -9.1296    1.5381 N.am      1 <0>        -0.7100
     20 C12         7.1020   -8.2487    2.5495 C.2       1 <0>         0.7289
     21 O2          7.5910   -8.5743    3.6141 O.2       1 <0>        -0.5283
     22 N5          6.7755   -6.9405    2.2199 N.am      1 <0>        -0.7428
     23 N6          5.9821   -8.3271   -0.8563 N.am      1 <0>        -0.7162
     24 C13         5.8841   -6.9937   -1.1848 C.2       1 <0>         0.7335
     25 O3          5.6902   -6.5820   -2.3123 O.2       1 <0>        -0.5236
     26 F1          3.5348    2.1309   -0.0216 F         1 <0>        -0.1261
     27 H3         -0.9608    1.9034    0.0260 H         1 <0>         0.1470
     28 H4          1.1445    3.1743    0.0081 H         1 <0>         0.1480
     29 H5         -0.9267   -0.5551    0.0079 H         1 <0>         0.1451
     30 H6          4.6207   -0.1293   -0.0448 H         1 <0>         0.1303
     31 H7          5.7714   -2.1643   -0.0674 H         1 <0>         0.3862
     32 H8          6.8360   -4.4655   -0.9807 H         1 <0>         0.1241
     33 H9          6.8543   -4.4750    0.7992 H         1 <0>         0.1179
     34 H10         6.7830  -10.0978    1.5885 H         1 <0>         0.4342
     35 H11         7.0592   -6.1227    2.6576 H         1 <0>         0.4339
     36 H12         5.7054   -9.0919   -1.3850 H         1 <0>         0.4336
@<TRIPOS>BOND
     1    1    6 ar
     2    1    2 ar
     3    1   27 1
     4    2    3 ar
     5    2   28 1
     6    3    4 ar
     7    3   26 1
     8    4    5 ar
     9    4    8 1
    10    5    6 ar
    11    5    7 1
    12    6   29 1
    13    8    9 2
    14    8   30 1
    15    9   10 1
    16   10   11 am
    17   10   31 1
    18   11   12 2
    19   11   13 1
    20   13   14 1
    21   13   32 1
    22   13   33 1
    23   14   24 am
    24   14   15 1
    25   15   16 1
    26   15   22 1
    27   15   17 1
    28   17   18 1
    29   17   19 1
    30   17   23 1
    31   19   20 am
    32   19   34 1
    33   20   21 2
    34   20   22 am
    35   22   35 1
    36   23   24 am
    37   23   36 1
    38   24   25 2
@<TRIPOS>MOLECULE
ZINC64939559
   45    47     0     0     0
SMALL
USER_CHARGES

@<TRIPOS>ATOM
      1 C1         -0.0167    1.3784    0.0096 C.ar      1 <0>         0.0176
      2 C2          1.1691    2.0872    0.0021 C.ar      1 <0>        -0.1720
      3 C3          2.3804    1.4092   -0.0130 C.ar      1 <0>         0.2252
      4 C4          2.3956    0.0204   -0.0204 C.ar      1 <0>        -0.1432
      5 C5          1.2075   -0.6825   -0.0128 C.ar      1 <0>         0.0159
      6 C6          0.0021   -0.0041    0.0020 C.ar      1 <0>        -0.7059
      7 S1         -1.5129   -0.9038    0.0121 S.o2      1 <0>         2.6980
      8 O1         -1.2208   -2.1848    0.5532 O.2       1 <0>        -0.9358
      9 O2         -2.4924   -0.0434    0.5772 O.2       1 <0>        -0.9362
     10 N1         -1.9494   -1.1453   -1.5670 N.pl3     1 <0>        -0.9144
     11 N2         -1.1011   -1.8540   -2.4277 N.am      1 <0>        -0.5171
     12 C7         -1.5645   -2.9284   -3.0967 C.2       1 <0>         0.7187
     13 O3         -0.8283   -3.5434   -3.8437 O.2       1 <0>        -0.5717
     14 N3         -2.8440   -3.3209   -2.9376 N.am      1 <0>        -0.7305
     15 C8         -3.3477   -4.4887   -3.6647 C.3       1 <0>         0.1254
     16 C9         -4.8180   -4.7165   -3.3079 C.3       1 <0>         0.0653
     17 C10        -5.3253   -6.0109   -3.9791 C.3       1 <0>        -0.1477
     18 C11        -6.7618   -5.6142   -4.4164 C.3       1 <0>        -0.1567
     19 C12        -6.5600   -4.1184   -4.7667 C.3       1 <0>         0.0491
     20 O4         -5.6119   -3.6321   -3.8033 O.3       1 <0>        -0.3771
     21 C13         3.7105   -0.7149   -0.0364 C.3       1 <0>        -0.0807
     22 C14         4.7328    0.0837   -0.8459 C.3       1 <0>        -0.1406
     23 C15         4.7274    1.5217   -0.4023 C.2       1 <0>         0.5215
     24 O5          5.7657    2.1485   -0.3885 O.2       1 <0>        -0.5122
     25 N4          3.5842    2.1202   -0.0203 N.am      1 <0>        -0.6659
     26 H1         -0.9595    1.9048    0.0260 H         1 <0>         0.1498
     27 H2          1.1537    3.1671    0.0076 H         1 <0>         0.1426
     28 H3          1.2191   -1.7624   -0.0188 H         1 <0>         0.1507
     29 H4         -2.7925   -0.7961   -1.8959 H         1 <0>         0.4258
     30 H5         -0.1803   -1.5715   -2.5422 H         1 <0>         0.4315
     31 H6         -3.4313   -2.8302   -2.3416 H         1 <0>         0.4017
     32 H7         -3.2566   -4.3161   -4.7371 H         1 <0>         0.0753
     33 H8         -2.7661   -5.3679   -3.3876 H         1 <0>         0.0822
     34 H9         -4.9284   -4.7916   -2.2261 H         1 <0>         0.0904
     35 H10        -4.7128   -6.2651   -4.8442 H         1 <0>         0.0839
     36 H11        -5.3506   -6.8340   -3.2650 H         1 <0>         0.0887
     37 H12        -7.0775   -6.1833   -5.2908 H         1 <0>         0.0864
     38 H13        -7.4693   -5.7336   -3.5959 H         1 <0>         0.0807
     39 H14        -6.1602   -4.0166   -5.7756 H         1 <0>         0.0622
     40 H15        -7.5024   -3.5781   -4.6760 H         1 <0>         0.0877
     41 H16         4.0710   -0.8363    0.9851 H         1 <0>         0.0898
     42 H17         3.5727   -1.6956   -0.4917 H         1 <0>         0.1006
     43 H18         5.7258   -0.3388   -0.6925 H         1 <0>         0.1161
     44 H19         4.4777    0.0304   -1.9043 H         1 <0>         0.1089
     45 H20         3.5953    3.0515    0.2510 H         1 <0>         0.4161
@<TRIPOS>BOND
     1    1    6 ar
     2    1    2 ar
     3    1   26 1
     4    2    3 ar
     5    2   27 1
     6    3   25 1
     7    3    4 ar
     8    4    5 ar
     9    4   21 1
    10    5    6 ar
    11    5   28 1
    12    6    7 1
    13    7    8 2
    14    7    9 2
    15    7   10 1
    16   10   11 1
    17   10   29 1
    18   11   12 am
    19   11   30 1
    20   12   13 2
    21   12   14 am
    22   14   15 1
    23   14   31 1
    24   15   16 1
    25   15   32 1
    26   15   33 1
    27   16   20 1
    28   16   17 1
    29   16   34 1
    30   17   18 1
    31   17   35 1
    32   17   36 1
    33   18   19 1
    34   18   37 1
    35   18   38 1
    36   19   20 1
    37   19   39 1
    38   19   40 1
    39   21   22 1
    40   21   41 1
    41   21   42 1
    42   22   23 1
    43   22   43 1
    44   22   44 1
    45   23   24 2
    46   23   25 am
    47   25   45 1
@<TRIPOS>MOLECULE
ZINC67194722
   44    45     0     0     0
SMALL
USER_CHARGES

@<TRIPOS>ATOM
      1 C1         -0.3030    1.6087    0.1975 C.3       1 <0>         0.0838
      2 N1         -0.0959    0.1625    0.0894 N.pl3     1 <0>        -1.1181
      3 S1         -1.3985   -0.8559   -0.0021 S.o2      1 <0>         2.7060
      4 O1         -0.8772   -2.1722   -0.1241 O.2       1 <0>        -0.9629
      5 O2         -2.2819   -0.4805    1.0458 O.2       1 <0>        -0.9455
      6 C2         -2.2314   -0.5020   -1.5139 C.ar      1 <0>        -0.7222
      7 C3         -2.2931   -1.4597   -2.5085 C.ar      1 <0>         0.0356
      8 C4         -2.9451   -1.1860   -3.6950 C.ar      1 <0>        -0.1767
      9 C5         -3.5403    0.0539   -3.8915 C.ar      1 <0>         0.2409
     10 C6         -3.4794    1.0166   -2.8941 C.ar      1 <0>        -0.2535
     11 C7         -2.8294    0.7359   -1.7023 C.ar      1 <0>         0.2407
     12 O3         -2.7731    1.6746   -0.7211 O.3       1 <0>        -0.3048
     13 C8         -3.4104    2.9264   -0.9835 C.3       1 <0>         0.0200
     14 N2         -4.2000    0.3315   -5.0938 N.am      1 <0>        -0.6715
     15 C9         -4.8483   -0.6515   -5.7494 C.2       1 <0>         0.5130
     16 O4         -4.9416   -1.7535   -5.2514 O.2       1 <0>        -0.5039
     17 C10        -5.4571   -0.3815   -7.1013 C.3       1 <0>         0.1237
     18 N3         -6.0993   -1.6002   -7.5998 N.am      1 <0>        -0.7375
     19 C11        -6.7139   -1.5957   -8.7993 C.2       1 <0>         0.7139
     20 O5         -6.7355   -0.5802   -9.4675 O.2       1 <0>        -0.5867
     21 N4         -7.3047   -2.7169   -9.2579 N.am      1 <0>        -0.7140
     22 C12        -7.9729   -2.7120  -10.5617 C.3       1 <0>         0.0971
     23 C13        -9.3353   -3.4013  -10.6599 C.3       1 <0>        -0.1942
     24 C14        -8.1027   -4.0491  -11.2940 C.3       1 <0>        -0.1894
     25 H1          0.6630    2.1114    0.2460 H         1 <0>         0.0766
     26 H2         -0.8536    1.9631   -0.6739 H         1 <0>         0.0683
     27 H3         -0.8724    1.8277    1.1008 H         1 <0>         0.0691
     28 H4          0.8042   -0.1986    0.0714 H         1 <0>         0.4183
     29 H5         -1.8304   -2.4238   -2.3578 H         1 <0>         0.1557
     30 H6         -2.9919   -1.9361   -4.4706 H         1 <0>         0.1466
     31 H7         -3.9413    1.9812   -3.0444 H         1 <0>         0.1435
     32 H8         -2.9547    3.3897   -1.8585 H         1 <0>         0.0632
     33 H9         -4.4715    2.7617   -1.1707 H         1 <0>         0.0640
     34 H10        -3.2912    3.5825   -0.1213 H         1 <0>         0.1120
     35 H11        -4.1908    1.2316   -5.4554 H         1 <0>         0.4198
     36 H12        -6.2003    0.4109   -7.0133 H         1 <0>         0.1058
     37 H13        -4.6764   -0.0719   -7.7961 H         1 <0>         0.1077
     38 H14        -6.0821   -2.4104   -7.0667 H         1 <0>         0.4095
     39 H15        -7.2876   -3.5271   -8.7248 H         1 <0>         0.4001
     40 H16        -7.8151   -1.8197  -11.1675 H         1 <0>         0.1407
     41 H17        -9.7345   -3.8584   -9.7545 H         1 <0>         0.0972
     42 H18       -10.0742   -2.9623  -11.3303 H         1 <0>         0.1043
     43 H19        -8.0308   -4.0363  -12.3815 H         1 <0>         0.1057
     44 H20        -7.6910   -4.9324  -10.8057 H         1 <0>         0.0978
@<TRIPOS>BOND
     1    1    2 1
     2    1   25 1
     3    1   26 1
     4    1   27 1
     5    2    3 1
     6    2   28 1
     7    3    4 2
     8    3    5 2
     9    3    6 1
    10    6   11 ar
    11    6    7 ar
    12    7    8 ar
    13    7   29 1
    14    8    9 ar
    15    8   30 1
    16    9   10 ar
    17    9   14 1
    18   10   11 ar
    19   10   31 1
    20   11   12 1
    21   12   13 1
    22   13   32 1
    23   13   33 1
    24   13   34 1
    25   14   15 am
    26   14   35 1
    27   15   16 2
    28   15   17 1
    29   17   18 1
    30   17   36 1
    31   17   37 1
    32   18   19 am
    33   18   38 1
    34   19   20 2
    35   19   21 am
    36   21   22 1
    37   21   39 1
    38   22   24 1
    39   22   23 1
    40   22   40 1
    41   23   24 1
    42   23   41 1
    43   23   42 1
    44   24   43 1
    45   24   44 1
@<TRIPOS>MOLECULE
ZINC08580591
   40    42     0     0     0
SMALL
USER_CHARGES
[2-(dimethyl-dioxo-BLAHyl)ethylideneamino]thiourea
@<TRIPOS>ATOM
      1 C1         -3.6017    6.3634    0.1024 C.3       1 <0>        -0.1220
      2 C2         -2.2990    5.6060    0.0885 C.ar      1 <0>        -0.1047
      3 C3         -2.3116    4.2441    0.1101 C.ar      1 <0>        -0.0074
      4 C4         -1.0976    3.5296    0.0974 C.ar      1 <0>         0.0183
      5 C5          0.1225    4.2422    0.0619 C.ar      1 <0>         0.1756
      6 C6          0.1052    5.6341    0.0403 C.ar      1 <0>        -0.1688
      7 C7         -1.0973    6.3055    0.0531 C.ar      1 <0>         0.0146
      8 C8         -1.1112    7.8122    0.0292 C.3       1 <0>        -0.1340
      9 N1          1.3239    3.5656    0.0492 N.pl3     1 <0>        -0.4448
     10 C9          1.3026    2.2034    0.0713 C.2       1 <0>         0.4443
     11 N2          2.4096    1.4796    0.0619 N.2       1 <0>        -0.5974
     12 C10         2.3718    0.1497    0.0847 C.2       1 <0>         0.6798
     13 O1          3.4311   -0.4523    0.0746 O.2       1 <0>        -0.4868
     14 N3          1.2406   -0.5690    0.1177 N.am      1 <0>        -0.6804
     15 H1          1.2929   -1.5375    0.1325 H         1 <0>         0.4299
     16 C11         0.0273    0.0300    0.1312 C.2       1 <0>         0.5852
     17 O2         -1.0001   -0.6194    0.1611 O.2       1 <0>        -0.4545
     18 C12         0.0047    1.5095    0.1076 C.2       1 <0>         0.0338
     19 N4         -1.1126    2.1904    0.1234 N.2       1 <0>        -0.2966
     20 C13         2.5941    4.2947    0.0131 C.3       1 <0>         0.0853
     21 C14         3.0024    4.5220   -1.4196 C.2       1 <0>         0.0787
     22 N5          4.1518    4.1327   -1.8271 N.2       1 <0>        -0.2400
     23 N6          4.9785    3.3834   -0.9798 N.pl3     1 <0>        -0.5388
     24 C15         6.2301    3.0669   -1.3668 C.2       1 <0>         0.5974
     25 S1          7.2405    2.1513   -0.3314 S.2       1 <0>        -0.5908
     26 N7          6.6864    3.4710   -2.5689 N.pl3     1 <0>        -0.7857
     27 H2         -3.8954    6.5622    1.1331 H         1 <0>         0.0805
     28 H3         -3.4790    7.3072   -0.4289 H         1 <0>         0.0790
     29 H4         -4.3730    5.7686   -0.3869 H         1 <0>         0.0757
     30 H5         -3.2514    3.7126    0.1368 H         1 <0>         0.1563
     31 H6          1.0330    6.1864    0.0135 H         1 <0>         0.1497
     32 H7         -1.0939    8.1920    1.0508 H         1 <0>         0.0898
     33 H8         -0.2351    8.1752   -0.5082 H         1 <0>         0.0791
     34 H9         -2.0146    8.1593   -0.4723 H         1 <0>         0.0862
     35 H10         2.4759    5.2555    0.5140 H         1 <0>         0.1374
     36 H11         3.3621    3.7119    0.5217 H         1 <0>         0.1177
     37 H12         2.3252    5.0133   -2.1026 H         1 <0>         0.1932
     38 H13         4.6502    3.0926   -0.1147 H         1 <0>         0.4262
     39 H14         6.1139    3.9897   -3.1555 H         1 <0>         0.4066
     40 H15         7.5871    3.2432   -2.8474 H         1 <0>         0.4328
@<TRIPOS>BOND
     1    1    2 1
     2    1   27 1
     3    1   28 1
     4    1   29 1
     5    2    7 ar
     6    2    3 ar
     7    3    4 ar
     8    3   30 1
     9    4   19 1
    10    4    5 ar
    11    5    6 ar
    12    5    9 1
    13    6    7 ar
    14    6   31 1
    15    7    8 1
    16    8   32 1
    17    8   33 1
    18    8   34 1
    19    9   10 1
    20    9   20 1
    21   10   18 1
    22   10   11 2
    23   11   12 1
    24   12   13 2
    25   12   14 am
    26   14   15 1
    27   14   16 am
    28   16   17 2
    29   16   18 1
    30   18   19 2
    31   20   21 1
    32   20   35 1
    33   20   36 1
    34   21   22 2
    35   21   37 1
    36   22   23 1
    37   23   24 1
    38   23   38 1
    39   24   25 2
    40   24   26 1
    41   26   39 1
    42   26   40 1
@<TRIPOS>MOLECULE
ZINC44220752
   41    42     0     0     0
SMALL
USER_CHARGES

@<TRIPOS>ATOM
      1 C1         -0.0299    1.4679   -0.7389 C.3       1 <0>         0.0699
      2 N1          0.0043    0.0191   -0.5245 N.pl3     1 <0>        -0.7030
      3 C2         -1.1786   -0.6824   -0.3309 C.ar      1 <0>         0.3203
      4 C3         -2.3831   -0.0004   -0.2095 C.ar      1 <0>        -0.2033
      5 C4         -3.5568   -0.6994   -0.0167 C.ar      1 <0>         0.0217
      6 C5         -3.5454   -2.0835    0.0569 C.ar      1 <0>        -0.1218
      7 C6         -2.3612   -2.7772   -0.0612 C.ar      1 <0>         0.0362
      8 C7         -1.1645   -2.0842   -0.2626 C.ar      1 <0>        -0.2326
      9 C8          0.1054   -2.8205   -0.3963 C.2       1 <0>         0.5818
     10 O1          1.1564   -2.2126   -0.4657 O.2       1 <0>        -0.5226
     11 N2          0.1019   -4.1675   -0.4417 N.am      1 <0>        -0.6652
     12 C9          1.3111   -4.8698   -0.4591 C.ar      1 <0>         0.1563
     13 C10         1.4123   -6.0642   -1.1607 C.ar      1 <0>        -0.1385
     14 C11         2.6081   -6.7550   -1.1763 C.ar      1 <0>        -0.0791
     15 C12         3.7039   -6.2588   -0.4943 C.ar      1 <0>        -0.1103
     16 C13         3.6066   -5.0699    0.2052 C.ar      1 <0>        -0.0802
     17 C14         2.4152   -4.3715    0.2204 C.ar      1 <0>        -0.1170
     18 C15         5.0070   -7.0155   -0.5131 C.3       1 <0>        -0.5728
     19 S1          6.0097   -6.4582   -1.9182 S.o2      1 <0>         2.6083
     20 O2          5.4012   -6.8519   -3.1405 O.2       1 <0>        -0.9562
     21 O3          6.4300   -5.1157   -1.7177 O.2       1 <0>        -0.9556
     22 N3          7.4000   -7.3537   -1.8307 N.pl3     1 <0>        -1.2525
     23 N4         -4.8125   -2.8201    0.2641 N.pl3     1 <0>         0.0454
     24 O4         -5.8537   -2.2145    0.3685 O.2       1 <0>        -0.1646
     25 O5         -4.8063   -4.0274    0.3288 O.3       1 <0>        -0.1719
     26 H1          0.9862    1.8398   -0.8707 H         1 <0>         0.0871
     27 H2         -0.6164    1.6895   -1.6306 H         1 <0>         0.0663
     28 H3         -0.4850    1.9524    0.1250 H         1 <0>         0.0663
     29 H4          0.8531   -0.4503   -0.5178 H         1 <0>         0.4265
     30 H5         -2.4006    1.0780   -0.2657 H         1 <0>         0.1544
     31 H6         -4.4904   -0.1648    0.0778 H         1 <0>         0.1590
     32 H7         -2.3582   -3.8556   -0.0023 H         1 <0>         0.1532
     33 H8         -0.7395   -4.6498   -0.4624 H         1 <0>         0.4155
     34 H9          0.5567   -6.4525   -1.6932 H         1 <0>         0.1365
     35 H10         2.6873   -7.6840   -1.7213 H         1 <0>         0.1385
     36 H11         4.4642   -4.6852    0.7371 H         1 <0>         0.1368
     37 H12         2.3410   -3.4409    0.7635 H         1 <0>         0.1422
     38 H13         5.5478   -6.8309    0.4151 H         1 <0>         0.1452
     39 H14         4.8062   -8.0824   -0.6105 H         1 <0>         0.1455
     40 H15         7.5142   -8.0038   -1.1200 H         1 <0>         0.4129
     41 H16         8.1001   -7.2281   -2.4902 H         1 <0>         0.4217
@<TRIPOS>BOND
     1    1    2 1
     2    1   26 1
     3    1   27 1
     4    1   28 1
     5    2    3 1
     6    2   29 1
     7    3    8 ar
     8    3    4 ar
     9    4    5 ar
    10    4   30 1
    11    5    6 ar
    12    5   31 1
    13    6    7 ar
    14    6   23 1
    15    7    8 ar
    16    7   32 1
    17    8    9 1
    18    9   10 2
    19    9   11 am
    20   11   12 1
    21   11   33 1
    22   12   17 ar
    23   12   13 ar
    24   13   14 ar
    25   13   34 1
    26   14   15 ar
    27   14   35 1
    28   15   16 ar
    29   15   18 1
    30   16   17 ar
    31   16   36 1
    32   17   37 1
    33   18   19 1
    34   18   38 1
    35   18   39 1
    36   19   20 2
    37   19   21 2
    38   19   22 1
    39   22   40 1
    40   22   41 1
    41   23   24 2
    42   23   25 1
@<TRIPOS>MOLECULE
ZINC33957513
   36    38     0     0     0
SMALL
USER_CHARGES

@<TRIPOS>ATOM
      1 C1         -0.0167    1.3806    0.0096 C.ar      1 <0>        -0.1112
      2 C2          1.1661    2.0900    0.0021 C.ar      1 <0>        -0.0662
      3 C3          2.3854    1.4090   -0.0131 C.ar      1 <0>        -0.0431
      4 C4          2.3980    0.0108   -0.0207 C.ar      1 <0>        -0.0039
      5 C5          1.2070   -0.6865   -0.0131 C.ar      1 <0>        -0.1097
      6 C6          0.0021   -0.0041    0.0020 C.ar      1 <0>        -0.0111
      7 Cl1        -1.4917   -0.8885    0.0120 Cl        1 <0>        -0.0516
      8 Cl2         3.9078   -0.8458   -0.0402 Cl        1 <0>        -0.0025
      9 C7          3.6536    2.1611   -0.0217 C.2       1 <0>         0.0910
     10 N1          4.7849    1.5254   -0.0358 N.2       1 <0>        -0.1940
     11 N2          5.9899    2.2400   -0.0440 N.am      1 <0>        -0.5852
     12 C8          7.1648    1.5798   -0.0587 C.2       1 <0>         0.5111
     13 O1          7.1789    0.3668   -0.0649 O.2       1 <0>        -0.4834
     14 C9          8.4610    2.3485   -0.0674 C.3       1 <0>         0.1399
     15 N3          9.5855    1.4096   -0.0830 N.am      1 <0>        -0.6174
     16 C10        10.2457    0.8544    1.1068 C.3       1 <0>         0.3300
     17 H1          9.5553    0.3251    1.7636 H         1 <0>         0.1420
     18 C11        11.3471   -0.0645    0.5198 C.3       1 <0>         0.3316
     19 H2         11.2616   -1.0984    0.8541 H         1 <0>         0.1459
     20 N4         12.5986    0.5718    0.9542 N.am      1 <0>        -0.7346
     21 C12        12.3141    1.6679    1.6685 C.2       1 <0>         0.7072
     22 O2         13.1694    2.3852    2.1505 O.2       1 <0>        -0.5655
     23 N5         10.9892    1.9156    1.8001 N.am      1 <0>        -0.7409
     24 N6         11.1812    0.0787   -0.9334 N.am      1 <0>        -0.7345
     25 C13        10.1688    0.9185   -1.1835 C.2       1 <0>         0.7138
     26 O3          9.8136    1.2115   -2.3088 O.2       1 <0>        -0.5638
     27 H3         -0.9599    1.9064    0.0260 H         1 <0>         0.1459
     28 H4          1.1494    3.1699    0.0077 H         1 <0>         0.1486
     29 H5          1.2147   -1.7664   -0.0189 H         1 <0>         0.1478
     30 H6          3.6411    3.2410   -0.0161 H         1 <0>         0.1301
     31 H7          5.9786    3.2100   -0.0390 H         1 <0>         0.3863
     32 H8          8.5028    2.9802   -0.9547 H         1 <0>         0.1244
     33 H9          8.5201    2.9713    0.8252 H         1 <0>         0.1173
     34 H10        13.4911    0.2481    0.7549 H         1 <0>         0.4359
     35 H11        10.5905    2.6569    2.2822 H         1 <0>         0.4340
     36 H12        11.7189   -0.3678   -1.6061 H         1 <0>         0.4358
@<TRIPOS>BOND
     1    1    6 ar
     2    1    2 ar
     3    1   27 1
     4    2    3 ar
     5    2   28 1
     6    3    4 ar
     7    3    9 1
     8    4    5 ar
     9    4    8 1
    10    5    6 ar
    11    5   29 1
    12    6    7 1
    13    9   10 2
    14    9   30 1
    15   10   11 1
    16   11   12 am
    17   11   31 1
    18   12   13 2
    19   12   14 1
    20   14   15 1
    21   14   32 1
    22   14   33 1
    23   15   25 am
    24   15   16 1
    25   16   17 1
    26   16   23 1
    27   16   18 1
    28   18   19 1
    29   18   20 1
    30   18   24 1
    31   20   21 am
    32   20   34 1
    33   21   22 2
    34   21   23 am
    35   23   35 1
    36   24   25 am
    37   24   36 1
    38   25   26 2
@<TRIPOS>MOLECULE
ZINC64425591
   49    50     0     0     0
SMALL
USER_CHARGES

@<TRIPOS>ATOM
      1 C1         -0.0187    1.5258    0.0104 C.3       1 <0>        -0.1534
      2 C2          0.0021   -0.0041    0.0020 C.3       1 <0>        -0.1221
      3 C3          0.7182   -0.4975   -1.2568 C.3       1 <0>        -0.1328
      4 C4          0.7390   -2.0273   -1.2652 C.3       1 <0>         0.1332
      5 N1          1.4247   -2.4998   -2.4705 N.am      1 <0>        -0.7442
      6 C5          1.5637   -3.8219   -2.6922 C.2       1 <0>         0.7129
      7 O1          1.1201   -4.6225   -1.8919 O.2       1 <0>        -0.5663
      8 N2          2.1946   -4.2565   -3.8011 N.am      1 <0>        -0.5320
      9 N3          2.7058   -3.3340   -4.7233 N.am      1 <0>        -0.5295
     10 C6          3.3366   -3.7687   -5.8322 C.2       1 <0>         0.5254
     11 O2          3.4618   -4.9584   -6.0317 O.2       1 <0>        -0.5241
     12 C7          3.8865   -2.7764   -6.8241 C.3       1 <0>        -0.1498
     13 C8          4.5483   -3.5261   -7.9820 C.3       1 <0>         0.1339
     14 N4          5.0829   -2.5614   -8.9464 N.am      1 <0>        -0.5790
     15 C9          4.3858   -2.0676   -9.9923 C.2       1 <0>         0.5332
     16 O3          3.2427   -2.3265  -10.3023 O.2       1 <0>        -0.4545
     17 C10         5.3321   -1.1255  -10.6917 C.3       1 <0>         0.1151
     18 C11         4.7684    0.3014  -10.7207 C.3       1 <0>        -0.1203
     19 C12         5.2466    0.8656  -12.0838 C.3       1 <0>        -0.1228
     20 C13         5.1370   -0.3623  -13.0227 C.3       1 <0>        -0.1237
     21 C14         5.5725   -1.5540  -12.1412 C.3       1 <0>        -0.1192
     22 N5          6.5643   -1.1915   -9.9035 N.am      1 <0>        -0.7151
     23 C15         6.3219   -2.0552   -8.8970 C.2       1 <0>         0.7008
     24 O4          7.1370   -2.3445   -8.0432 O.2       1 <0>        -0.5352
     25 H1          1.0039    1.9031    0.0027 H         1 <0>         0.0547
     26 H2         -0.5459    1.8868   -0.8726 H         1 <0>         0.0546
     27 H3         -0.5289    1.8773    0.9072 H         1 <0>         0.0575
     28 H4          0.5293   -0.3651    0.8851 H         1 <0>         0.0669
     29 H5         -1.0205   -0.3814    0.0098 H         1 <0>         0.0668
     30 H6          0.1910   -0.1364   -2.1398 H         1 <0>         0.0698
     31 H7          1.7408   -0.1202   -1.2645 H         1 <0>         0.0699
     32 H8          1.2661   -2.3884   -0.3821 H         1 <0>         0.0715
     33 H9         -0.2836   -2.4046   -1.2575 H         1 <0>         0.0715
     34 H10         1.7786   -1.8611   -3.1090 H         1 <0>         0.3908
     35 H11         2.2946   -5.2081   -3.9607 H         1 <0>         0.4448
     36 H12         2.6057   -2.3825   -4.5637 H         1 <0>         0.4199
     37 H13         3.0747   -2.1585   -7.2081 H         1 <0>         0.1074
     38 H14         4.6245   -2.1423   -6.3327 H         1 <0>         0.1103
     39 H15         5.3601   -4.1439   -7.5981 H         1 <0>         0.1105
     40 H16         3.8103   -4.1601   -8.4734 H         1 <0>         0.1081
     41 H17         3.6795    0.2832  -10.6754 H         1 <0>         0.0905
     42 H18         5.1764    0.8903   -9.8991 H         1 <0>         0.0853
     43 H19         4.5909    1.6686  -12.4206 H         1 <0>         0.0793
     44 H20         6.2785    1.2104  -12.0182 H         1 <0>         0.0734
     45 H21         4.1091   -0.4936  -13.3607 H         1 <0>         0.0763
     46 H22         5.8084   -0.2524  -13.8743 H         1 <0>         0.0772
     47 H23         6.6296   -1.7690  -12.2978 H         1 <0>         0.0879
     48 H24         4.9723   -2.4329  -12.3764 H         1 <0>         0.0828
     49 H25         7.3886   -0.7082  -10.0701 H         1 <0>         0.4418
@<TRIPOS>BOND
     1    1    2 1
     2    1   25 1
     3    1   26 1
     4    1   27 1
     5    2    3 1
     6    2   28 1
     7    2   29 1
     8    3    4 1
     9    3   30 1
    10    3   31 1
    11    4    5 1
    12    4   32 1
    13    4   33 1
    14    5    6 am
    15    5   34 1
    16    6    7 2
    17    6    8 am
    18    8    9 1
    19    8   35 1
    20    9   10 am
    21    9   36 1
    22   10   11 2
    23   10   12 1
    24   12   13 1
    25   12   37 1
    26   12   38 1
    27   13   14 1
    28   13   39 1
    29   13   40 1
    30   14   23 am
    31   14   15 am
    32   15   16 2
    33   15   17 1
    34   17   21 1
    35   17   18 1
    36   17   22 1
    37   18   19 1
    38   18   41 1
    39   18   42 1
    40   19   20 1
    41   19   43 1
    42   19   44 1
    43   20   21 1
    44   20   45 1
    45   20   46 1
    46   21   47 1
    47   21   48 1
    48   22   23 am
    49   22   49 1
    50   23   24 2
@<TRIPOS>MOLECULE
ZINC67145136
   43    46     0     0     0
SMALL
USER_CHARGES

@<TRIPOS>ATOM
      1 C1         -0.0161    1.3795   -0.0008 C.ar      1 <0>        -0.1233
      2 C2          1.1636    2.0916   -0.0042 C.ar      1 <0>        -0.0805
      3 C3          2.3864    1.4156   -0.0099 C.ar      1 <0>        -0.1394
      4 C4          2.4056    0.0145   -0.0114 C.ar      1 <0>         0.1118
      5 C5          1.2081   -0.6901   -0.0057 C.ar      1 <0>         0.0387
      6 C6          0.0029   -0.0048   -0.0018 C.ar      1 <0>        -0.0837
      7 O1          1.2020   -2.0515    0.0007 O.3       1 <0>        -0.3040
      8 C7          2.4197   -2.7020   -0.3789 C.3       1 <0>         0.0184
      9 C8          3.5795   -2.0177    0.3572 C.3       1 <0>         0.0146
     10 O2          3.5974   -0.6368   -0.0207 O.3       1 <0>        -0.2720
     11 C9          3.6521    2.1739   -0.0148 C.2       1 <0>         0.5667
     12 O3          4.7148    1.5830   -0.0198 O.2       1 <0>        -0.5138
     13 N1          3.6303    3.5215   -0.0138 N.am      1 <0>        -0.7205
     14 C10         4.8871    4.2744   -0.0187 C.3       1 <0>         0.1044
     15 C11         4.5878    5.7514   -0.0165 C.2       1 <0>         0.5123
     16 O4          3.4379    6.1371   -0.0113 O.2       1 <0>        -0.5157
     17 N2          5.5979    6.6436   -0.0202 N.am      1 <0>        -0.6642
     18 C12         5.3219    8.0137   -0.1157 C.ar      1 <0>         0.1507
     19 C13         6.1813    8.8469   -0.8229 C.ar      1 <0>        -0.1266
     20 C14         5.9149   10.1977   -0.9207 C.ar      1 <0>        -0.0839
     21 C15         4.7867   10.7265   -0.3118 C.ar      1 <0>         0.0779
     22 C16         3.9216    9.8923    0.3993 C.ar      1 <0>         0.1087
     23 C17         4.1890    8.5353    0.4908 C.ar      1 <0>        -0.1063
     24 N3          2.8961   10.6982    0.8882 N.am      1 <0>        -0.6399
     25 H1          2.1442   10.3980    1.4224 H         1 <0>         0.4372
     26 C18         3.1259   11.9645    0.4932 C.2       1 <0>         0.6849
     27 O5          2.4170   12.9190    0.7527 O.2       1 <0>        -0.5529
     28 N4          4.2588   12.0149   -0.2325 N.am      1 <0>        -0.6411
     29 H2          4.6425   12.8113   -0.6317 H         1 <0>         0.4367
     30 H3         -0.9602    1.9039    0.0072 H         1 <0>         0.1412
     31 H4          1.1430    3.1714   -0.0028 H         1 <0>         0.1372
     32 H5         -0.9268   -0.5543    0.0005 H         1 <0>         0.1412
     33 H6          2.3768   -3.7546   -0.0992 H         1 <0>         0.1258
     34 H7          2.5639   -2.6127   -1.4556 H         1 <0>         0.0803
     35 H8          3.4326   -2.1024    1.4339 H         1 <0>         0.0803
     36 H9          4.5218   -2.4880    0.0761 H         1 <0>         0.1265
     37 H10         2.7826    3.9928   -0.0099 H         1 <0>         0.4112
     38 H11         5.4666    4.0197    0.8686 H         1 <0>         0.1062
     39 H12         5.4590    4.0209   -0.9114 H         1 <0>         0.1069
     40 H13         6.5160    6.3371    0.0432 H         1 <0>         0.4189
     41 H14         7.0603    8.4359   -1.2971 H         1 <0>         0.1403
     42 H15         6.5847   10.8423   -1.4705 H         1 <0>         0.1393
     43 H16         3.5193    7.8868    1.0360 H         1 <0>         0.1492
@<TRIPOS>BOND
     1    1    6 ar
     2    1    2 ar
     3    1   30 1
     4    2    3 ar
     5    2   31 1
     6    3    4 ar
     7    3   11 1
     8    4   10 1
     9    4    5 ar
    10    5    6 ar
    11    5    7 1
    12    6   32 1
    13    7    8 1
    14    8    9 1
    15    8   33 1
    16    8   34 1
    17    9   10 1
    18    9   35 1
    19    9   36 1
    20   11   12 2
    21   11   13 am
    22   13   14 1
    23   13   37 1
    24   14   15 1
    25   14   38 1
    26   14   39 1
    27   15   16 2
    28   15   17 am
    29   17   18 1
    30   17   40 1
    31   18   23 ar
    32   18   19 ar
    33   19   20 ar
    34   19   41 1
    35   20   21 ar
    36   20   42 1
    37   21   28 1
    38   21   22 ar
    39   22   23 ar
    40   22   24 1
    41   23   43 1
    42   24   25 1
    43   24   26 am
    44   26   27 2
    45   26   28 am
    46   28   29 1
@<TRIPOS>MOLECULE
ZINC20362459
   31    32     0     0     0
SMALL
USER_CHARGES
(3R)-3-[(4-amino-6-oxo-1H-pyrimidin-2-yl)sulfanyl]azepan-2-one
@<TRIPOS>ATOM
      1 C1          1.1044    3.0525    0.0079 C.2       1 <0>        -0.4150
      2 C2         -0.1331    3.6807    0.0231 C.2       1 <0>         0.4705
      3 N1         -1.2507    2.9457    0.0298 N.2       1 <0>        -0.5625
      4 C3         -1.2007    1.6295    0.0166 C.2       1 <0>         0.3746
      5 N2         -0.0111    0.9658    0.0074 N.am      1 <0>        -0.6389
      6 H1          0.0051   -0.1341    0.0060 H         1 <0>         0.4419
      7 C4          1.1490    1.6550   -0.0000 C.2       1 <0>         0.5439
      8 O1          2.2196    1.0682   -0.0138 O.2       1 <0>        -0.5575
      9 S1         -2.7029    0.7085    0.0187 S.3       1 <0>         0.0615
     10 C5         -3.9025    2.0639    0.0318 C.3       1 <0>        -0.1018
     11 H2         -3.8297    2.8194    0.8280 H         1 <0>         0.1451
     12 C6         -5.3197    1.4953    0.1360 C.3       1 <0>        -0.1051
     13 C7         -5.4284    0.1806   -0.6166 C.3       1 <0>        -0.1314
     14 C8         -5.2766    0.3205   -2.1202 C.3       1 <0>        -0.1448
     15 C9         -3.8547    0.7496   -2.4871 C.3       1 <0>         0.0682
     16 N3         -3.7765    2.2184   -2.4308 N.am      1 <0>        -0.7291
     17 C10        -3.7944    2.8513   -1.2571 C.2       1 <0>         0.5368
     18 O2         -3.7236    4.0616   -1.2218 O.2       1 <0>        -0.5283
     19 N4         -0.2103    5.0590    0.0317 N.pl3     1 <0>        -0.8491
     20 H3          2.0157    3.6321    0.0027 H         1 <0>         0.1441
     21 H4         -5.5679    1.3208    1.1933 H         1 <0>         0.0926
     22 H5         -6.0347    2.2114   -0.2951 H         1 <0>         0.0897
     23 H6         -4.6409   -0.5055   -0.2716 H         1 <0>         0.0689
     24 H7         -6.4146   -0.2690   -0.4287 H         1 <0>         0.0825
     25 H8         -5.4901   -0.6452   -2.6017 H         1 <0>         0.0820
     26 H9         -5.9818    1.0789   -2.4910 H         1 <0>         0.0728
     27 H10        -3.1431    0.3096   -1.7729 H         1 <0>         0.1069
     28 H11        -3.6172    0.4012   -3.5031 H         1 <0>         0.0877
     29 H12        -3.7027    2.8013   -3.3607 H         1 <0>         0.4247
     30 H13        -1.1922    5.5548    0.0437 H         1 <0>         0.4324
     31 H14         0.7100    5.6615    0.0265 H         1 <0>         0.4367
@<TRIPOS>BOND
     1    1    7 1
     2    1    2 2
     3    1   20 1
     4    2    3 1
     5    2   19 1
     6    3    4 2
     7    4    5 1
     8    4    9 1
     9    5    6 1
    10    5    7 am
    11    7    8 2
    12    9   10 1
    13   10   11 1
    14   10   17 1
    15   10   12 1
    16   12   13 1
    17   12   21 1
    18   12   22 1
    19   13   14 1
    20   13   23 1
    21   13   24 1
    22   14   15 1
    23   14   25 1
    24   14   26 1
    25   15   16 1
    26   15   27 1
    27   15   28 1
    28   16   17 am
    29   16   29 1
    30   17   18 2
    31   19   30 1
    32   19   31 1
@<TRIPOS>MOLECULE
ZINC40215773
   35    36     0     0     0
SMALL
USER_CHARGES

@<TRIPOS>ATOM
      1 C1         -0.0187    1.5258    0.0104 C.3       1 <0>        -0.1619
      2 C2          0.0021   -0.0041    0.0020 C.3       1 <0>         0.1843
      3 H1          0.5293   -0.3651    0.8851 H         1 <0>         0.1059
      4 C3         -1.4117   -0.5257    0.0127 C.ar      1 <0>        -0.1128
      5 C4         -2.1415   -0.5688   -1.1607 C.ar      1 <0>        -0.0586
      6 C5         -3.4382   -1.0472   -1.1509 C.ar      1 <0>        -0.1326
      7 C6         -4.0053   -1.4831    0.0323 C.ar      1 <0>        -0.0192
      8 C7         -3.2754   -1.4408    1.2052 C.ar      1 <0>        -0.6708
      9 C8         -1.9769   -0.9662    1.1946 C.ar      1 <0>        -0.0036
     10 S1         -3.9984   -1.9957    2.7132 S.o2      1 <0>         2.7013
     11 O1         -3.2972   -1.3442    3.7636 O.2       1 <0>        -0.9585
     12 O2         -5.4060   -1.8851    2.5536 O.2       1 <0>        -0.9576
     13 N1         -3.6632   -3.6115    2.8514 N.pl3     1 <0>        -1.2472
     14 N2          0.6878   -0.4765   -1.2033 N.am      1 <0>        -0.7304
     15 C9          2.0310   -0.5870   -1.2149 C.2       1 <0>         0.5932
     16 O3          2.6742   -0.2942   -0.2242 O.2       1 <0>        -0.5212
     17 C10         2.7175   -1.0600   -2.4217 C.2       1 <0>        -0.0647
     18 C11         4.0777   -1.2267   -2.5730 C.2       1 <0>        -0.0992
     19 C12         4.2923   -1.6928   -3.8738 C.2       1 <0>        -0.2108
     20 C13         3.0863   -1.8004   -4.4809 C.2       1 <0>         0.0274
     21 N3          2.1207   -1.4241   -3.6075 N.pl3     1 <0>        -0.5429
     22 H2          1.1678   -1.4115   -3.7884 H         1 <0>         0.4138
     23 H3          1.0039    1.9031    0.0027 H         1 <0>         0.0716
     24 H4         -0.5459    1.8868   -0.8726 H         1 <0>         0.0596
     25 H5         -0.5289    1.8773    0.9072 H         1 <0>         0.0735
     26 H6         -1.6985   -0.2284   -2.0850 H         1 <0>         0.1281
     27 H7         -4.0085   -1.0803   -2.0675 H         1 <0>         0.1383
     28 H8         -5.0188   -1.8562    0.0401 H         1 <0>         0.1461
     29 H9         -1.4052   -0.9367    2.1104 H         1 <0>         0.1472
     30 H10        -3.5674   -4.0137    3.7289 H         1 <0>         0.4234
     31 H11        -3.5626   -4.1558    2.0548 H         1 <0>         0.4172
     32 H12         0.1751   -0.7099   -1.9930 H         1 <0>         0.3922
     33 H13         4.8349   -1.0333   -1.8275 H         1 <0>         0.1494
     34 H14         5.2498   -1.9254   -4.3160 H         1 <0>         0.1463
     35 H15         2.9208   -2.1350   -5.4944 H         1 <0>         0.1732
@<TRIPOS>BOND
     1    1    2 1
     2    1   23 1
     3    1   24 1
     4    1   25 1
     5    2    3 1
     6    2    4 1
     7    2   14 1
     8    4    9 ar
     9    4    5 ar
    10    5    6 ar
    11    5   26 1
    12    6    7 ar
    13    6   27 1
    14    7    8 ar
    15    7   28 1
    16    8    9 ar
    17    8   10 1
    18    9   29 1
    19   10   11 2
    20   10   12 2
    21   10   13 1
    22   13   30 1
    23   13   31 1
    24   14   15 am
    25   14   32 1
    26   15   16 2
    27   15   17 1
    28   17   21 1
    29   17   18 2
    30   18   19 1
    31   18   33 1
    32   19   20 2
    33   19   34 1
    34   20   21 1
    35   20   35 1
    36   21   22 1
@<TRIPOS>MOLECULE
ZINC41632504
   34    35     0     0     0
SMALL
USER_CHARGES

@<TRIPOS>ATOM
      1 C1         -0.0312    1.0261    0.0100 C.3       1 <0>        -0.0615
      2 C2         -0.7554    1.5317   -1.2110 C.2       1 <0>         0.2355
      3 N1         -2.0629    1.7828   -1.2855 N.2       1 <0>        -0.5397
      4 H1         -1.1320    2.5090   -4.1454 H         1 <0>         0.4463
      5 C3         -2.3643    2.2106   -2.4935 C.2       1 <0>         0.2514
      6 N2         -1.2251    2.2374   -3.2189 N.pl3     1 <0>        -0.4601
      7 N3         -0.2017    1.7991   -2.3631 N.2       1 <0>        -0.3043
      8 S1         -3.9683    2.6663   -3.0630 S.3       1 <0>         0.0783
      9 C4         -5.0368    2.4044   -1.6207 C.3       1 <0>        -0.1045
     10 H2         -4.6465    2.9667   -0.7724 H         1 <0>         0.1291
     11 C5         -5.0690    0.9146   -1.2736 C.3       1 <0>        -0.1465
     12 C6         -6.4324    2.8767   -1.9371 C.2       1 <0>         0.5414
     13 O1         -6.8141    2.9131   -3.0878 O.2       1 <0>        -0.4983
     14 N4         -7.2566    3.2587   -0.9414 N.am      1 <0>        -0.6601
     15 C7         -8.5191    3.7854   -1.2407 C.ar      1 <0>         0.1608
     16 C8         -9.2288    3.3095   -2.3336 C.ar      1 <0>        -0.1756
     17 C9        -10.4799    3.8335   -2.6269 C.ar      1 <0>         0.2277
     18 C10       -11.0187    4.8327   -1.8262 C.ar      1 <0>        -0.1832
     19 C11       -10.3104    5.3056   -0.7379 C.ar      1 <0>        -0.0826
     20 C12        -9.0655    4.7820   -0.4394 C.ar      1 <0>         0.0133
     21 F1         -8.3778    5.2425    0.6284 F         1 <0>        -0.1422
     22 N5        -11.1974    3.3563   -3.7279 N.pl3     1 <0>        -0.8710
     23 H3         -0.0253   -0.0639    0.0037 H         1 <0>         0.0868
     24 H4          0.9945    1.3950    0.0028 H         1 <0>         0.0847
     25 H5         -0.5388    1.3815    0.9068 H         1 <0>         0.0882
     26 H6         -5.7110    0.7573   -0.4069 H         1 <0>         0.0751
     27 H7         -5.4593    0.3523   -2.1218 H         1 <0>         0.0744
     28 H8         -4.0595    0.5730   -1.0447 H         1 <0>         0.0929
     29 H9         -6.9752    3.1688   -0.0175 H         1 <0>         0.4183
     30 H10        -8.8083    2.5329   -2.9552 H         1 <0>         0.1483
     31 H11       -11.9923    5.2407   -2.0547 H         1 <0>         0.1328
     32 H12       -10.7315    6.0824   -0.1170 H         1 <0>         0.1408
     33 H13       -10.8208    2.6588   -4.2869 H         1 <0>         0.4019
     34 H14       -12.0719    3.7227   -3.9326 H         1 <0>         0.4017
@<TRIPOS>BOND
     1    1   23 1
     2    1   24 1
     3    1   25 1
     4    1    2 1
     5    2    3 1
     6    2    7 2
     7    3    5 2
     8    4    6 1
     9    5    8 1
    10    5    6 1
    11    6    7 1
    12    8    9 1
    13    9   10 1
    14    9   11 1
    15    9   12 1
    16   11   26 1
    17   11   27 1
    18   11   28 1
    19   12   13 2
    20   12   14 am
    21   14   15 1
    22   14   29 1
    23   15   20 ar
    24   15   16 ar
    25   16   17 ar
    26   16   30 1
    27   17   18 ar
    28   17   22 1
    29   18   19 ar
    30   18   31 1
    31   19   20 ar
    32   19   32 1
    33   20   21 1
    34   22   33 1
    35   22   34 1
@<TRIPOS>MOLECULE
ZINC09358723
   28    30     0     0     0
SMALL
USER_CHARGES

@<TRIPOS>ATOM
      1 C1         -0.0168    1.3847    0.0097 C.ar      1 <0>        -0.1578
      2 C2          1.1653    2.0946    0.0022 C.ar      1 <0>        -0.0660
      3 C3          2.3852    1.4168   -0.0131 C.ar      1 <0>        -0.0647
      4 C4          2.4023    0.0155   -0.0208 C.ar      1 <0>         0.1880
      5 C5          1.2102   -0.6866   -0.0132 C.ar      1 <0>        -0.1758
      6 C6          0.0021   -0.0041    0.0020 C.ar      1 <0>         0.1355
      7 O1         -1.1667   -0.6969    0.0095 O.3       1 <0>        -0.4989
      8 O2          3.5856   -0.6514   -0.0362 O.3       1 <0>        -0.4786
      9 C7          3.6532    2.1734   -0.0217 C.2       1 <0>         0.1487
     10 C8          4.5914    2.2011   -1.0442 C.2       1 <0>        -0.1265
     11 C9          5.6361    3.0457   -0.6306 C.2       1 <0>         0.0633
     12 N1          5.3555    3.5020    0.5613 N.2       1 <0>        -0.2846
     13 N2          4.1222    2.9825    0.9714 N.pl3     1 <0>        -0.4698
     14 H1          3.6794    3.1645    1.8150 H         1 <0>         0.4405
     15 C10         4.5074    1.4735   -2.3346 C.2       1 <0>         0.0896
     16 C11         5.4309    1.4992   -3.3307 C.2       1 <0>        -0.0534
     17 N3          4.9548    0.6916   -4.3285 N.pl3     1 <0>        -0.5700
     18 H2          5.3912    0.5061   -5.1747 H         1 <0>         0.4200
     19 C12         3.7657    0.2004   -3.9175 C.2       1 <0>         0.1829
     20 N4          3.5036    0.6633   -2.7269 N.2       1 <0>        -0.4681
     21 H3         -0.9602    1.9102    0.0260 H         1 <0>         0.1334
     22 H4          1.1471    3.1744    0.0078 H         1 <0>         0.1294
     23 H5          1.2198   -1.7666   -0.0191 H         1 <0>         0.1363
     24 H6         -1.5135   -0.8927   -0.8717 H         1 <0>         0.3952
     25 H7          3.9370   -0.8492    0.8427 H         1 <0>         0.3862
     26 H8          6.5224    3.2783   -1.2021 H         1 <0>         0.1863
     27 H9          6.3598    2.0502   -3.3349 H         1 <0>         0.1754
     28 H10         3.1356   -0.4710   -4.4820 H         1 <0>         0.2037
@<TRIPOS>BOND
     1    1    6 ar
     2    1    2 ar
     3    1   21 1
     4    2    3 ar
     5    2   22 1
     6    3    4 ar
     7    3    9 1
     8    4    5 ar
     9    4    8 1
    10    5    6 ar
    11    5   23 1
    12    6    7 1
    13    7   24 1
    14    8   25 1
    15    9   13 1
    16    9   10 2
    17   10   11 1
    18   10   15 1
    19   11   12 2
    20   11   26 1
    21   12   13 1
    22   13   14 1
    23   15   20 1
    24   15   16 2
    25   16   17 1
    26   16   27 1
    27   17   18 1
    28   17   19 1
    29   19   20 2
    30   19   28 1
@<TRIPOS>MOLECULE
ZINC61953268
   38    38     0     0     0
SMALL
USER_CHARGES

@<TRIPOS>ATOM
      1 C1          0.2237    1.5254   -0.1091 C.3       1 <0>        -0.1617
      2 C2         -0.0033    0.0174    0.0143 C.3       1 <0>         0.1346
      3 H1         -1.0694   -0.1818    0.1232 H         1 <0>         0.1226
      4 C3          0.5125   -0.6712   -1.2229 C.2       1 <0>         0.4973
      5 O1          1.3898   -1.5030   -1.1325 O.2       1 <0>        -0.4460
      6 N1         -0.0014   -0.3623   -2.4300 N.am      1 <0>        -0.6913
      7 C4          0.4600   -0.9781   -3.5365 C.2       1 <0>         0.6898
      8 O2          1.3394   -1.8120   -3.4458 O.2       1 <0>        -0.5264
      9 N2         -0.0540   -0.6692   -4.7435 N.am      1 <0>        -0.7418
     10 C5          0.4475   -1.3386   -5.9462 C.3       1 <0>         0.1018
     11 N3          0.7106   -0.4894    1.1889 N.pl3     1 <0>        -0.6063
     12 C6          2.1445   -0.2310    1.3424 C.3       1 <0>         0.0908
     13 C7          0.0241   -1.2191    2.1626 C.ar      1 <0>         0.2148
     14 C8         -1.3027   -1.5790    1.9549 C.ar      1 <0>        -0.1688
     15 C9         -1.9865   -2.3008    2.9149 C.ar      1 <0>        -0.0732
     16 C10        -1.3572   -2.6690    4.0867 C.ar      1 <0>        -0.1424
     17 C11        -0.0248   -2.3126    4.3055 C.ar      1 <0>        -0.0646
     18 C12         0.6675   -1.5891    3.3334 C.ar      1 <0>        -0.1179
     19 C13         0.6508   -2.7047    5.5584 C.2       1 <0>         0.3955
     20 S1          2.3135   -3.1122    5.5430 S.2       1 <0>        -0.5488
     21 N4         -0.0415   -2.7419    6.7142 N.pl3     1 <0>        -0.7604
     22 H2          1.2898    1.7246   -0.2180 H         1 <0>         0.0703
     23 H3         -0.3075    1.9025   -0.9831 H         1 <0>         0.0745
     24 H4         -0.1494    2.0235    0.7857 H         1 <0>         0.0811
     25 H5         -0.7033    0.3033   -2.5023 H         1 <0>         0.4087
     26 H6         -0.7559   -0.0036   -4.8158 H         1 <0>         0.4002
     27 H7          0.2858   -2.4130   -5.8583 H         1 <0>         0.0625
     28 H8         -0.0837   -0.9615   -6.8201 H         1 <0>         0.0813
     29 H9          1.5136   -1.1394   -6.0551 H         1 <0>         0.0626
     30 H10         2.2893    0.7036    1.8842 H         1 <0>         0.0530
     31 H11         2.6034   -1.0484    1.8987 H         1 <0>         0.0779
     32 H12         2.6076   -0.1561    0.3585 H         1 <0>         0.0731
     33 H13        -1.8009   -1.2932    1.0402 H         1 <0>         0.1264
     34 H14        -3.0170   -2.5774    2.7476 H         1 <0>         0.1324
     35 H15        -1.8954   -3.2324    4.8347 H         1 <0>         0.1237
     36 H16         1.6994   -1.3143    3.4947 H         1 <0>         0.1466
     37 H17        -0.9836   -2.5110    6.7229 H         1 <0>         0.4045
     38 H18         0.4024   -2.9995    7.5373 H         1 <0>         0.4237
@<TRIPOS>BOND
     1    1    2 1
     2    1   22 1
     3    1   23 1
     4    1   24 1
     5    2    3 1
     6    2    4 1
     7    2   11 1
     8    4    5 2
     9    4    6 am
    10    6    7 am
    11    6   25 1
    12    7    8 2
    13    7    9 am
    14    9   10 1
    15    9   26 1
    16   10   27 1
    17   10   28 1
    18   10   29 1
    19   11   12 1
    20   11   13 1
    21   12   30 1
    22   12   31 1
    23   12   32 1
    24   13   18 ar
    25   13   14 ar
    26   14   15 ar
    27   14   33 1
    28   15   16 ar
    29   15   34 1
    30   16   17 ar
    31   16   35 1
    32   17   18 ar
    33   17   19 1
    34   18   36 1
    35   19   20 2
    36   19   21 1
    37   21   37 1
    38   21   38 1
@<TRIPOS>MOLECULE
ZINC36862406
   31    33     0     0     0
SMALL
USER_CHARGES

@<TRIPOS>ATOM
      1 C1         -0.1161    1.1329   -0.2942 C.ar      1 <0>        -0.0983
      2 C2          1.0195    1.7904    0.1426 C.ar      1 <0>        -0.1157
      3 C3          2.2492    1.1579    0.1001 C.ar      1 <0>        -0.0880
      4 C4          2.3392   -0.1355   -0.3824 C.ar      1 <0>         0.1133
      5 C5          1.1949   -0.8002   -0.8273 C.ar      1 <0>         0.1263
      6 C6         -0.0328   -0.1596   -0.7786 C.ar      1 <0>        -0.1307
      7 N1          1.3029   -2.1040   -1.3235 N.am      1 <0>        -0.6531
      8 C7          2.4199   -2.8274   -1.1189 C.2       1 <0>         0.5155
      9 O1          2.5091   -3.9397   -1.5944 O.2       1 <0>        -0.5092
     10 C8          3.5611   -2.2712   -0.3062 C.3       1 <0>         0.0726
     11 N2          3.5703   -0.8061   -0.4325 N.am      1 <0>        -0.5620
     12 C9          4.7249   -0.1291   -0.5909 C.2       1 <0>         0.5986
     13 O2          4.7031    1.0665   -0.8182 O.2       1 <0>        -0.4945
     14 C10         6.0071   -0.8328   -0.4894 C.2       1 <0>        -0.0389
     15 C11         7.2291   -0.3661   -0.9284 C.2       1 <0>        -0.1388
     16 C12         8.1787   -1.3539   -0.6329 C.2       1 <0>         0.1185
     17 C13         7.5307   -2.3852   -0.0306 C.2       1 <0>        -0.0492
     18 N3          6.2099   -2.0751    0.0661 N.pl3     1 <0>        -0.5426
     19 H1          5.5243   -2.6375    0.4592 H         1 <0>         0.4193
     20 N4          9.5568   -1.2893   -0.9108 N.pl3     1 <0>        -0.8772
     21 H2         -1.0740    1.6301   -0.2526 H         1 <0>         0.1338
     22 H3          0.9462    2.8006    0.5176 H         1 <0>         0.1343
     23 H4          3.1354    1.6720    0.4419 H         1 <0>         0.1457
     24 H5         -0.9228   -0.6688   -1.1178 H         1 <0>         0.1356
     25 H6          0.5649   -2.4910   -1.8200 H         1 <0>         0.4180
     26 H7          3.4312   -2.5459    0.7406 H         1 <0>         0.1151
     27 H8          4.5034   -2.6752   -0.6764 H         1 <0>         0.1338
     28 H9          7.4182    0.5820   -1.4099 H         1 <0>         0.1501
     29 H10         7.9894   -3.2988    0.3175 H         1 <0>         0.1713
     30 H11         9.9274   -0.5061   -1.3468 H         1 <0>         0.3994
     31 H12        10.1360   -2.0280   -0.6663 H         1 <0>         0.3969
@<TRIPOS>BOND
     1    1    6 ar
     2    1    2 ar
     3    1   21 1
     4    2    3 ar
     5    2   22 1
     6    3    4 ar
     7    3   23 1
     8    4   11 1
     9    4    5 ar
    10    5    6 ar
    11    5    7 1
    12    6   24 1
    13    7    8 am
    14    7   25 1
    15    8    9 2
    16    8   10 1
    17   10   11 1
    18   10   26 1
    19   10   27 1
    20   11   12 am
    21   12   13 2
    22   12   14 1
    23   14   18 1
    24   14   15 2
    25   15   16 1
    26   15   28 1
    27   16   17 2
    28   16   20 1
    29   17   18 1
    30   17   29 1
    31   18   19 1
    32   20   30 1
    33   20   31 1
@<TRIPOS>MOLECULE
ZINC44510240
   39    41     0     0     0
SMALL
USER_CHARGES

@<TRIPOS>ATOM
      1 C1         -0.0167    1.3799    0.0096 C.ar      1 <0>        -0.1448
      2 C2          1.1764    2.0882    0.0020 C.ar      1 <0>         0.1638
      3 C3          2.3925    1.4071   -0.0133 C.ar      1 <0>         0.1614
      4 C4          2.4105    0.0202   -0.0202 C.ar      1 <0>        -0.1564
      5 C5          1.2179   -0.6851   -0.0121 C.ar      1 <0>         0.0833
      6 C6          0.0021   -0.0041    0.0020 C.ar      1 <0>         0.0710
      7 O1         -1.1607   -0.7116    0.0067 O.3       1 <0>        -0.3029
      8 C7         -1.1579   -1.9577   -0.6946 C.3       1 <0>         0.0520
      9 C8          0.0760   -2.7424   -0.3279 C.2       1 <0>         0.4900
     10 O2          0.0441   -3.9549   -0.3111 O.2       1 <0>        -0.5178
     11 N1          1.2174   -2.0896   -0.0175 N.am      1 <0>        -0.6559
     12 N2          3.5980    2.1242   -0.0223 N.pl3     1 <0>        -0.7500
     13 C9          4.8760    1.4084   -0.0385 C.3       1 <0>         0.1313
     14 C10         6.0259    2.4177   -0.0456 C.3       1 <0>        -0.1403
     15 C11         7.3607    1.6700   -0.0625 C.3       1 <0>         0.0828
     16 H1          7.3991    0.9636    0.7667 H         1 <0>         0.0838
     17 C12         8.5260    2.6761    0.0522 C.3       1 <0>        -0.1515
     18 C13         9.5757    2.0771   -0.9231 C.3       1 <0>        -0.1580
     19 C14         8.6542    1.4763   -2.0143 C.3       1 <0>         0.0489
     20 O3          7.5104    0.9710   -1.3037 O.3       1 <0>        -0.3768
     21 N3          1.1588    3.4902    0.0094 N.pl3     1 <0>        -0.8784
     22 H2         -0.9588    1.9078    0.0260 H         1 <0>         0.1384
     23 H3          3.3520   -0.5088   -0.0322 H         1 <0>         0.1329
     24 H4         -2.0455   -2.5291   -0.4227 H         1 <0>         0.1435
     25 H5         -1.1627   -1.7699   -1.7683 H         1 <0>         0.0976
     26 H6          2.0244   -2.5831    0.1971 H         1 <0>         0.4137
     27 H7          3.5853    3.0941   -0.0178 H         1 <0>         0.3937
     28 H8          4.9509    0.7785    0.8480 H         1 <0>         0.0576
     29 H9          4.9329    0.7865   -0.9319 H         1 <0>         0.0670
     30 H10         5.9510    3.0475   -0.9320 H         1 <0>         0.0738
     31 H11         5.9690    3.0395    0.8478 H         1 <0>         0.0786
     32 H12         8.2151    3.6686   -0.2742 H         1 <0>         0.0787
     33 H13         8.9145    2.7054    1.0702 H         1 <0>         0.0839
     34 H14        10.2176    2.8554   -1.3358 H         1 <0>         0.0841
     35 H15        10.1661    1.3008   -0.4364 H         1 <0>         0.0797
     36 H16         8.3507    2.2491   -2.7206 H         1 <0>         0.0605
     37 H17         9.1635    0.6655   -2.5352 H         1 <0>         0.0864
     38 H18         0.3128    3.9645    0.0198 H         1 <0>         0.4016
     39 H19         1.9927    3.9857    0.0041 H         1 <0>         0.3928
@<TRIPOS>BOND
     1    1    6 ar
     2    1    2 ar
     3    1   22 1
     4    2    3 ar
     5    2   21 1
     6    3    4 ar
     7    3   12 1
     8    4    5 ar
     9    4   23 1
    10    5   11 1
    11    5    6 ar
    12    6    7 1
    13    7    8 1
    14    8    9 1
    15    8   24 1
    16    8   25 1
    17    9   10 2
    18    9   11 am
    19   11   26 1
    20   12   13 1
    21   12   27 1
    22   13   14 1
    23   13   28 1
    24   13   29 1
    25   14   15 1
    26   14   30 1
    27   14   31 1
    28   15   16 1
    29   15   20 1
    30   15   17 1
    31   17   18 1
    32   17   32 1
    33   17   33 1
    34   18   19 1
    35   18   34 1
    36   18   35 1
    37   19   20 1
    38   19   36 1
    39   19   37 1
    40   21   38 1
    41   21   39 1
@<TRIPOS>MOLECULE
ZINC50306219
   36    38     0     0     0
SMALL
USER_CHARGES

@<TRIPOS>ATOM
      1 C1         -0.0184    1.5028    0.0103 C.3       1 <0>        -0.0709
      2 C2          0.0021   -0.0041    0.0020 C.2       1 <0>        -0.0822
      3 C3          0.0081   -0.8061   -1.0957 C.2       1 <0>         0.1594
      4 C4          0.0292   -2.1329   -0.5935 C.2       1 <0>        -0.0606
      5 N1          0.0344   -2.0485    0.7234 N.2       1 <0>        -0.2347
      6 N2          0.0239   -0.8175    1.0902 N.pl3     1 <0>        -0.3660
      7 H1          0.0286   -0.5127    2.0110 H         1 <0>         0.4472
      8 C5          0.0421   -3.3722   -1.3924 C.2       1 <0>         0.6268
      9 O1          0.0347   -3.3128   -2.6069 O.2       1 <0>        -0.5309
     10 N3          0.0621   -4.5709   -0.7764 N.am      1 <0>        -0.5978
     11 C6          0.0665   -4.7875    0.6818 C.3       1 <0>         0.1026
     12 C7         -0.5233   -6.2070    0.8736 C.3       1 <0>        -0.1353
     13 C8          0.0727   -6.9593   -0.3456 C.3       1 <0>        -0.1236
     14 C9          0.0766   -5.8789   -1.4474 C.3       1 <0>         0.2106
     15 H2         -0.8085   -5.9835   -2.0749 H         1 <0>         0.0791
     16 C10         1.3216   -6.0108   -2.2863 C.2       1 <0>         0.0126
     17 C11         2.5309   -5.4908   -1.9935 C.2       1 <0>        -0.1774
     18 C12         3.4075   -5.8485   -3.0369 C.2       1 <0>        -0.2009
     19 C13         2.7006   -6.5735   -3.9274 C.2       1 <0>        -0.0111
     20 N4          1.4210   -6.6814   -3.4692 N.pl3     1 <0>        -0.5518
     21 H3          0.6999   -7.1549   -3.9128 H         1 <0>         0.4115
     22 N5         -0.0040   -0.4066   -2.4400 N.pl3     1 <0>        -0.8532
     23 H4          1.0042    1.8801    0.0026 H         1 <0>         0.0711
     24 H5         -0.5455    1.8639   -0.8728 H         1 <0>         0.0762
     25 H6         -0.5286    1.8543    0.9071 H         1 <0>         0.0689
     26 H7          1.0846   -4.7443    1.0687 H         1 <0>         0.0702
     27 H8         -0.5603   -4.0462    1.1774 H         1 <0>         0.0968
     28 H9         -0.1822   -6.6486    1.8100 H         1 <0>         0.0877
     29 H10        -1.6121   -6.1874    0.8265 H         1 <0>         0.0771
     30 H11         1.0855   -7.3002   -0.1310 H         1 <0>         0.0849
     31 H12        -0.5646   -7.7961   -0.6315 H         1 <0>         0.0837
     32 H13         2.7812   -4.9071   -1.1200 H         1 <0>         0.1254
     33 H14         4.4534   -5.5894   -3.1101 H         1 <0>         0.1326
     34 H15         3.0831   -6.9989   -4.8435 H         1 <0>         0.1628
     35 H16        -0.0180    0.5367   -2.6655 H         1 <0>         0.3969
     36 H17         0.0016   -1.0736   -3.1443 H         1 <0>         0.4124
@<TRIPOS>BOND
     1    1    2 1
     2    1   23 1
     3    1   24 1
     4    1   25 1
     5    2    6 1
     6    2    3 2
     7    3    4 1
     8    3   22 1
     9    4    5 2
    10    4    8 1
    11    5    6 1
    12    6    7 1
    13    8    9 2
    14    8   10 am
    15   10   14 1
    16   10   11 1
    17   11   12 1
    18   11   26 1
    19   11   27 1
    20   12   13 1
    21   12   28 1
    22   12   29 1
    23   13   14 1
    24   13   30 1
    25   13   31 1
    26   14   15 1
    27   14   16 1
    28   16   20 1
    29   16   17 2
    30   17   18 1
    31   17   32 1
    32   18   19 2
    33   18   33 1
    34   19   20 1
    35   19   34 1
    36   20   21 1
    37   22   35 1
    38   22   36 1
@<TRIPOS>MOLECULE
ZINC55185831
   34    35     0     0     0
SMALL
USER_CHARGES

@<TRIPOS>ATOM
      1 C1         -0.0132    1.4933    0.0043 C.3       1 <0>        -0.1167
      2 C2          0.0128   -0.0134    0.0019 C.ar      1 <0>        -0.1174
      3 C3          0.0243   -0.6991   -1.1919 C.ar      1 <0>        -0.0391
      4 C4          0.0488   -2.0963   -1.1932 C.ar      1 <0>        -0.1510
      5 C5          0.0616   -2.7932    0.0184 C.ar      1 <0>        -0.0714
      6 C6          0.0500   -2.1017    1.2084 C.ar      1 <0>        -0.1265
      7 C7          0.0309   -0.7100    1.2062 C.ar      1 <0>         0.1720
      8 N1          0.0250   -0.0130    2.4127 N.am      1 <0>        -0.6535
      9 C8         -0.6315   -0.5145    3.4776 C.2       1 <0>         0.5943
     10 O1         -1.1489   -1.6135    3.4108 O.2       1 <0>        -0.5107
     11 C9         -0.7225    0.2672    4.7207 C.2       1 <0>         0.0379
     12 C10        -1.3841   -0.2359    5.8129 C.2       1 <0>        -0.1528
     13 S1         -1.1717    1.1036    6.9777 S.3       1 <0>         0.0219
     14 C11        -0.2350    2.1878    5.9099 C.2       1 <0>         0.3853
     15 N2         -0.1579    1.4741    4.8050 N.2       1 <0>        -0.5694
     16 N3          0.2788    3.4459    6.1755 N.pl3     1 <0>        -0.7929
     17 C12         0.0607   -2.8345   -2.4711 C.2       1 <0>         0.5600
     18 O2          0.0491   -2.2270   -3.5242 O.2       1 <0>        -0.5372
     19 N4          0.0844   -4.1820   -2.4706 N.am      1 <0>        -0.7327
     20 C13         0.0962   -4.9148   -3.7391 C.3       1 <0>         0.0868
     21 H1          1.0080    1.8744   -0.0004 H         1 <0>         0.0745
     22 H2         -0.5378    1.8491   -0.8825 H         1 <0>         0.0755
     23 H3         -0.5287    1.8464    0.8975 H         1 <0>         0.0669
     24 H4          0.0139   -0.1577   -2.1264 H         1 <0>         0.1410
     25 H5          0.0803   -3.8730    0.0208 H         1 <0>         0.1293
     26 H6          0.0596   -2.6396    2.1449 H         1 <0>         0.1476
     27 H7          0.4935    0.8333    2.4862 H         1 <0>         0.4227
     28 H8         -1.8933   -1.1805    5.9349 H         1 <0>         0.2098
     29 H9          0.1450    3.8504    7.0469 H         1 <0>         0.4239
     30 H10         0.7725    3.9227    5.4900 H         1 <0>         0.4198
     31 H11         0.0936   -4.6667   -1.6305 H         1 <0>         0.4019
     32 H12        -0.7987   -4.6674   -4.3100 H         1 <0>         0.0616
     33 H13         0.9809   -4.6361   -4.3116 H         1 <0>         0.0616
     34 H14         0.1152   -5.9862   -3.5396 H         1 <0>         0.0772
@<TRIPOS>BOND
     1    1    2 1
     2    1   21 1
     3    1   22 1
     4    1   23 1
     5    2    7 ar
     6    2    3 ar
     7    3    4 ar
     8    3   24 1
     9    4    5 ar
    10    4   17 1
    11    5    6 ar
    12    5   25 1
    13    6    7 ar
    14    6   26 1
    15    7    8 1
    16    8    9 am
    17    8   27 1
    18    9   10 2
    19    9   11 1
    20   11   15 1
    21   11   12 2
    22   12   13 1
    23   12   28 1
    24   13   14 1
    25   14   15 2
    26   14   16 1
    27   16   29 1
    28   16   30 1
    29   17   18 2
    30   17   19 am
    31   19   20 1
    32   19   31 1
    33   20   32 1
    34   20   33 1
    35   20   34 1
@<TRIPOS>MOLECULE
ZINC63009360
   36    37     0     0     0
SMALL
USER_CHARGES

@<TRIPOS>ATOM
      1 C1          0.0494    1.3363    0.5952 C.ar      1 <0>        -0.0753
      2 C2          1.2332    2.0360    0.5317 C.ar      1 <0>        -0.1198
      3 C3          2.3798    1.4241    0.0363 C.ar      1 <0>         0.0994
      4 C4          2.3353    0.1003   -0.3982 C.ar      1 <0>         0.0525
      5 C5          1.1542   -0.6060   -0.3381 C.ar      1 <0>        -0.0972
      6 C6         -0.0006    0.0076    0.1609 C.ar      1 <0>        -0.1093
      7 C7         -1.2651   -0.7433    0.2276 C.2       1 <0>         0.5180
      8 O1         -2.2738   -0.2053    0.6633 O.co2     1 <0>        -0.6782
      9 O2         -1.3072   -1.9054   -0.1526 O.co2     1 <0>        -0.6784
     10 F1          3.4512   -0.4902   -0.8791 F         1 <0>        -0.1483
     11 N1          3.5767    2.1367   -0.0262 N.am      1 <0>        -0.6633
     12 C8          3.5565    3.4814   -0.1149 C.2       1 <0>         0.7094
     13 O3          2.4961    4.0760   -0.0967 O.2       1 <0>        -0.5560
     14 N2          4.7117    4.1670   -0.2238 N.am      1 <0>        -0.6275
     15 C9          5.9924    3.4594   -0.3572 C.3       1 <0>         0.0983
     16 C10         6.9509    3.9664    0.7249 C.3       1 <0>        -0.1331
     17 C11         7.0616    5.4898    0.6296 C.3       1 <0>        -0.1403
     18 C12         5.6871    6.1188    0.8686 C.3       1 <0>         0.0055
     19 H1          5.3170    5.8224    1.8500 H         1 <0>         0.1471
     20 C13         4.7137    5.6362   -0.2176 C.3       1 <0>         0.1140
     21 N3          5.8005    7.5822    0.8088 N.4       1 <0>        -0.6312
     22 H2         -0.8389    1.8115    0.9843 H         1 <0>         0.1397
     23 H3          1.2715    3.0620    0.8667 H         1 <0>         0.1534
     24 H4          1.1193   -1.6314   -0.6753 H         1 <0>         0.1470
     25 H5          4.4238    1.6647   -0.0059 H         1 <0>         0.4062
     26 H6          5.8330    2.3884   -0.2315 H         1 <0>         0.0937
     27 H7          6.4169    3.6546   -1.3420 H         1 <0>         0.0844
     28 H8          6.5689    3.6902    1.7077 H         1 <0>         0.0827
     29 H9          7.9345    3.5202    0.5778 H         1 <0>         0.1020
     30 H10         7.7621    5.8508    1.3826 H         1 <0>         0.0926
     31 H11         7.4202    5.7665   -0.3619 H         1 <0>         0.0915
     32 H12         5.0361    6.0053   -1.1912 H         1 <0>         0.0891
     33 H13         3.7103    6.0021    0.0003 H         1 <0>         0.1198
     34 H14         6.1421    7.8563   -0.1002 H         1 <0>         0.4337
     35 H15         4.8941    7.9965    0.9664 H         1 <0>         0.4398
     36 H16         6.4432    7.8990    1.5192 H         1 <0>         0.4381
@<TRIPOS>BOND
     1    1    6 ar
     2    1    2 ar
     3    1   22 1
     4    2    3 ar
     5    2   23 1
     6    3    4 ar
     7    3   11 1
     8    4    5 ar
     9    4   10 1
    10    5    6 ar
    11    5   24 1
    12    6    7 1
    13    7    8 2
    14    7    9 1
    15   11   12 am
    16   11   25 1
    17   12   13 2
    18   12   14 am
    19   14   20 1
    20   14   15 1
    21   15   16 1
    22   15   26 1
    23   15   27 1
    24   16   17 1
    25   16   28 1
    26   16   29 1
    27   17   18 1
    28   17   30 1
    29   17   31 1
    30   18   19 1
    31   18   20 1
    32   18   21 1
    33   20   32 1
    34   20   33 1
    35   21   34 1
    36   21   35 1
    37   21   36 1
@<TRIPOS>MOLECULE
ZINC05731660
   29    31     0     0     0
SMALL
USER_CHARGES
N-[(2-oxoindolin-3-ylidene)amino]-2-sulfanyl-3H-imidazole-4-carboxamide
@<TRIPOS>ATOM
      1 C1         -8.1322   -2.6100    0.0119 C.ar      1 <0>        -0.1406
      2 C2         -7.9340   -3.9805    0.0052 C.ar      1 <0>        -0.0642
      3 C3         -6.6580   -4.5063   -0.0006 C.ar      1 <0>        -0.1358
      4 C4         -5.5542   -3.6602    0.0014 C.ar      1 <0>         0.1551
      5 C5         -5.7592   -2.2746    0.0083 C.ar      1 <0>        -0.1053
      6 C6         -7.0487   -1.7544    0.0136 C.ar      1 <0>        -0.0333
      7 C7         -4.4145   -1.6530    0.0083 C.2       1 <0>         0.0734
      8 N1         -4.1261   -0.3733    0.0132 N.2       1 <0>        -0.1120
      9 N2         -2.7884    0.0432    0.0123 N.am      1 <0>        -0.5837
     10 C8         -2.4921    1.3580    0.0173 C.2       1 <0>         0.6172
     11 O1         -3.3868    2.1837    0.0227 O.2       1 <0>        -0.4800
     12 C9         -1.1385    1.7795    0.0164 C.2       1 <0>        -0.0523
     13 C10        -0.6760    3.0791    0.0243 C.2       1 <0>         0.1139
     14 N3          0.6537    3.0419    0.0117 N.pl3     1 <0>        -0.5269
     15 C11         1.0679    1.7901    0.0015 C.2       1 <0>         0.4750
     16 N4         -0.0111    0.9658    0.0074 N.pl3     1 <0>        -0.5598
     17 H1          0.1301   -0.1251    0.0046 H         1 <0>         0.4871
     18 S1          2.7514    1.2704   -0.0163 S.2       1 <0>        -0.6427
     19 C12        -3.4703   -2.7871   -0.0051 C.2       1 <0>         0.5545
     20 O2         -2.2559   -2.7079   -0.0140 O.2       1 <0>        -0.5089
     21 N5         -4.1888   -3.9227   -0.0029 N.am      1 <0>        -0.6546
     22 H2         -9.1353   -2.2100    0.0157 H         1 <0>         0.1374
     23 H3         -8.7860   -4.6442    0.0039 H         1 <0>         0.1380
     24 H4         -6.5163   -5.5770   -0.0062 H         1 <0>         0.1358
     25 H5         -7.2021   -0.6854    0.0186 H         1 <0>         0.1384
     26 H6         -1.9801   -0.7028    0.0075 H         1 <0>         0.4274
     27 H7         -1.3242    3.8404    0.0374 H         1 <0>         0.1998
     28 H8          1.2301    3.9788    0.0111 H         1 <0>         0.4929
     29 H9         -3.8285   -4.9620   -0.0041 H         1 <0>         0.4542
@<TRIPOS>BOND
     1    1    6 ar
     2    1    2 ar
     3    1   22 1
     4    2    3 ar
     5    2   23 1
     6    3    4 ar
     7    3   24 1
     8    4   21 1
     9    4    5 ar
    10    5    6 ar
    11    5    7 1
    12    6   25 1
    13    7    8 2
    14    7   19 1
    15    8    9 1
    16    9   10 am
    17    9   26 1
    18   10   11 2
    19   10   12 1
    20   12   16 1
    21   12   13 2
    22   13   27 1
    23   13   14 1
    24   14   15 1
    25   14   28 1
    26   15   18 2
    27   15   16 1
    28   16   17 1
    29   19   20 2
    30   19   21 am
    31   21   29 1
@<TRIPOS>MOLECULE
ZINC39388748
   34    35     0     0     0
SMALL
USER_CHARGES

@<TRIPOS>ATOM
      1 C1          0.8248    1.2229   -0.1272 C.3       1 <0>        -0.0951
      2 C2         -0.0114   -0.0229    0.0143 C.2       1 <0>         0.1355
      3 N1         -0.4040   -0.4111    1.1889 N.2       1 <0>        -0.2101
      4 N2         -1.0565   -1.6418    1.3381 N.am      1 <0>        -0.5843
      5 C3         -1.5613   -1.9960    2.5365 C.2       1 <0>         0.5779
      6 O1         -1.4504   -1.2472    3.4884 O.2       1 <0>        -0.4888
      7 C4         -2.2486   -3.2922    2.6937 C.ar      1 <0>        -0.1103
      8 C5         -2.3716   -4.1560    1.6022 C.ar      1 <0>        -0.1091
      9 C6         -3.0155   -5.3698    1.7523 C.ar      1 <0>         0.0954
     10 C7         -3.5412   -5.7322    2.9896 C.ar      1 <0>         0.0880
     11 C8         -3.4204   -4.8731    4.0788 C.ar      1 <0>         0.0956
     12 C9         -2.7724   -3.6606    3.9356 C.ar      1 <0>        -0.0731
     13 O2         -3.9354   -5.2299    5.2859 O.3       1 <0>        -0.4780
     14 O3         -4.1738   -6.9262    3.1345 O.3       1 <0>        -0.4720
     15 O4         -3.1360   -6.2108    0.6903 O.3       1 <0>        -0.4790
     16 C10        -0.3835   -0.8008   -1.1818 C.ar      1 <0>        -0.0547
     17 C11        -1.6503   -1.3893   -1.2930 C.ar      1 <0>        -0.1805
     18 C12        -1.9556   -2.1078   -2.4297 C.ar      1 <0>         0.1127
     19 N3         -1.0746   -2.2445   -3.4024 N.ar      1 <0>        -0.4741
     20 C13         0.1290   -1.7071   -3.3388 C.ar      1 <0>         0.1084
     21 C14         0.5175   -0.9674   -2.2419 C.ar      1 <0>        -0.1421
     22 H1          1.8808    0.9610   -0.0615 H         1 <0>         0.0908
     23 H2          0.6249    1.6869   -1.0930 H         1 <0>         0.0852
     24 H3          0.5734    1.9217    0.6707 H         1 <0>         0.0892
     25 H4         -1.1450   -2.2390    0.5789 H         1 <0>         0.3898
     26 H5         -1.9643   -3.8752    0.6422 H         1 <0>         0.1353
     27 H6         -2.6751   -2.9966    4.7818 H         1 <0>         0.1555
     28 H7         -3.3167   -5.7136    5.8500 H         1 <0>         0.3942
     29 H8         -3.5891   -7.6524    3.3911 H         1 <0>         0.3914
     30 H9         -2.4031   -6.8348    0.5976 H         1 <0>         0.3931
     31 H10        -2.3761   -1.2822   -0.5005 H         1 <0>         0.1376
     32 H11        -2.9293   -2.5653   -2.5249 H         1 <0>         0.1645
     33 H12         0.8179   -1.8454   -4.1590 H         1 <0>         0.1648
     34 H13         1.5026   -0.5267   -2.1987 H         1 <0>         0.1467
@<TRIPOS>BOND
     1    1    2 1
     2    1   22 1
     3    1   23 1
     4    1   24 1
     5    2    3 2
     6    2   16 1
     7    3    4 1
     8    4    5 am
     9    4   25 1
    10    5    6 2
    11    5    7 1
    12    7   12 ar
    13    7    8 ar
    14    8    9 ar
    15    8   26 1
    16    9   10 ar
    17    9   15 1
    18   10   11 ar
    19   10   14 1
    20   11   12 ar
    21   11   13 1
    22   12   27 1
    23   13   28 1
    24   14   29 1
    25   15   30 1
    26   16   21 ar
    27   16   17 ar
    28   17   18 ar
    29   17   31 1
    30   18   19 ar
    31   18   32 1
    32   19   20 ar
    33   20   21 ar
    34   20   33 1
    35   21   34 1
@<TRIPOS>MOLECULE
ZINC49165613
   38    39     0     0     0
SMALL
USER_CHARGES

@<TRIPOS>ATOM
      1 C1         -0.0187    1.5258    0.0104 C.3       1 <0>        -0.1672
      2 C2          0.0021   -0.0041    0.0020 C.3       1 <0>         0.1287
      3 N1         -1.3723   -0.5112    0.0124 N.am      1 <0>        -0.7449
      4 C3         -1.6006   -1.8394    0.0075 C.2       1 <0>         0.7123
      5 O1         -0.6659   -2.6169   -0.0056 O.2       1 <0>        -0.5636
      6 N2         -2.8650   -2.3059    0.0170 N.am      1 <0>        -0.5274
      7 N3         -3.9421   -1.4101    0.0321 N.am      1 <0>        -0.5351
      8 C4         -5.2065   -1.8766    0.0417 C.2       1 <0>         0.5976
      9 O2         -5.4126   -3.0758    0.0372 O.2       1 <0>        -0.5089
     10 C5         -6.3354   -0.9377    0.0575 C.2       1 <0>        -0.0826
     11 C6         -7.6589   -1.2799    0.0738 C.2       1 <0>         0.0178
     12 C7         -8.3825   -0.0813    0.0858 C.2       1 <0>        -0.2712
     13 C8         -7.4636    0.9682    0.0740 C.2       1 <0>         0.1256
     14 N4         -6.2392    0.4409    0.0645 N.pl3     1 <0>        -0.5156
     15 H1         -5.4108    0.9456    0.0609 H         1 <0>         0.4171
     16 C9         -7.8773    2.4180    0.0755 C.3       1 <0>        -0.0625
     17 C10        -9.3245    2.5306   -0.4123 C.3       1 <0>        -0.1090
     18 C11       -10.2404    1.6020    0.3912 C.3       1 <0>        -0.1646
     19 C12        -9.8328    0.1635    0.1096 C.2       1 <0>         0.4261
     20 O3        -10.6447   -0.7175   -0.0818 O.2       1 <0>        -0.4531
     21 C13        -8.2281   -2.6752    0.0776 C.3       1 <0>        -0.1044
     22 H2          1.0039    1.9031    0.0027 H         1 <0>         0.0804
     23 H3         -0.5459    1.8868   -0.8726 H         1 <0>         0.0620
     24 H4         -0.5289    1.8773    0.9072 H         1 <0>         0.0620
     25 H5          0.5123   -0.3556   -0.8948 H         1 <0>         0.0722
     26 H6          0.5293   -0.3651    0.8851 H         1 <0>         0.0722
     27 H7         -2.1181    0.1091    0.0229 H         1 <0>         0.3877
     28 H8         -3.0293   -3.2619    0.0135 H         1 <0>         0.4465
     29 H9         -3.7778   -0.4541    0.0357 H         1 <0>         0.4107
     30 H10        -7.8020    2.8169    1.0871 H         1 <0>         0.0976
     31 H11        -7.2241    2.9836   -0.5890 H         1 <0>         0.0898
     32 H12        -9.6641    3.5596   -0.2946 H         1 <0>         0.0889
     33 H13        -9.3705    2.2563   -1.4662 H         1 <0>         0.0744
     34 H14       -10.1336    1.8120    1.4554 H         1 <0>         0.1020
     35 H15       -11.2761    1.7559    0.0884 H         1 <0>         0.0965
     36 H16        -8.3524   -3.0141    1.1061 H         1 <0>         0.0765
     37 H17        -9.1958   -2.6742   -0.4241 H         1 <0>         0.0795
     38 H18        -7.5479   -3.3465   -0.4465 H         1 <0>         0.0857
@<TRIPOS>BOND
     1    1    2 1
     2    1   22 1
     3    1   23 1
     4    1   24 1
     5    2    3 1
     6    2   25 1
     7    2   26 1
     8    3    4 am
     9    3   27 1
    10    4    5 2
    11    4    6 am
    12    6    7 1
    13    6   28 1
    14    7    8 am
    15    7   29 1
    16    8    9 2
    17    8   10 1
    18   10   14 1
    19   10   11 2
    20   11   12 1
    21   11   21 1
    22   12   19 1
    23   12   13 2
    24   13   14 1
    25   13   16 1
    26   14   15 1
    27   16   17 1
    28   16   30 1
    29   16   31 1
    30   17   18 1
    31   17   32 1
    32   17   33 1
    33   18   19 1
    34   18   34 1
    35   18   35 1
    36   19   20 2
    37   21   36 1
    38   21   37 1
    39   21   38 1
@<TRIPOS>MOLECULE
ZINC51635743
   27    28     0     0     0
SMALL
USER_CHARGES

@<TRIPOS>ATOM
      1 C1         -0.0168    1.3859    0.0097 C.ar      1 <0>        -0.2054
      2 C2          1.1671    2.0987    0.0022 C.ar      1 <0>        -0.0930
      3 C3          2.3791    1.4340   -0.0134 C.ar      1 <0>         0.0483
      4 C4          2.4081    0.0354   -0.0212 C.ar      1 <0>        -0.0224
      5 C5          1.2105   -0.6819   -0.0132 C.ar      1 <0>        -0.0991
      6 C6          0.0021   -0.0041    0.0020 C.ar      1 <0>         0.2615
      7 N1         -1.1998   -0.7190    0.0101 N.2       1 <0>        -1.0875
      8 S1         -2.6445    0.0902    0.0289 S.o2      1 <0>         2.6151
      9 O1         -2.7172    0.7625    1.2786 O.2       1 <0>        -1.0064
     10 O2         -2.7420    0.7759   -1.2119 O.2       1 <0>        -1.0114
     11 C7         -3.9215   -1.1238    0.0350 C.2       1 <0>        -0.7913
     12 C8         -4.8373   -1.3503    1.0664 C.2       1 <0>         0.3155
     13 N2         -5.6281   -2.3287    0.7069 N.pl3     1 <0>        -0.3890
     14 H1         -5.6584   -3.4752   -1.0781 H         1 <0>         0.4663
     15 N3         -5.2438   -2.7614   -0.5687 N.pl3     1 <0>        -0.4703
     16 C9         -4.1959   -2.0045   -0.9666 C.2       1 <0>         0.5665
     17 N4         -3.5190   -2.1090   -2.1785 N.pl3     1 <0>        -0.7798
     18 C10         3.6611   -0.6576   -0.0379 C.1       1 <0>         0.2657
     19 N5          4.6551   -1.2074   -0.0511 N.1       1 <0>        -0.4263
     20 F1          3.5344    2.1343   -0.0216 F         1 <0>        -0.1450
     21 H2         -0.9605    1.9108    0.0260 H         1 <0>         0.1150
     22 H3          1.1454    3.1785    0.0082 H         1 <0>         0.1335
     23 H4          1.2259   -1.7617   -0.0195 H         1 <0>         0.1357
     24 H5         -4.8839   -0.8103    2.0006 H         1 <0>         0.2499
     25 H6         -2.7741   -1.5181   -2.3704 H         1 <0>         0.4539
     26 H7         -3.7922   -2.7727   -2.8310 H         1 <0>         0.4240
     27 H8         -6.3565   -2.6926    1.2340 H         1 <0>         0.4761
@<TRIPOS>BOND
     1    1    6 ar
     2    1    2 ar
     3    1   21 1
     4    2    3 ar
     5    2   22 1
     6    3    4 ar
     7    3   20 1
     8    4    5 ar
     9    4   18 1
    10    5    6 ar
    11    5   23 1
    12    6    7 1
    13    7    8 1
    14    8    9 2
    15    8   10 2
    16    8   11 1
    17   11   12 1
    18   11   16 2
    19   12   24 1
    20   12   13 2
    21   13   15 1
    22   13   27 1
    23   14   15 1
    24   15   16 1
    25   16   17 1
    26   17   25 1
    27   17   26 1
    28   18   19 3
@<TRIPOS>MOLECULE
ZINC64422427
   31    32     0     0     0
SMALL
USER_CHARGES

@<TRIPOS>ATOM
      1 C1         -0.0318    1.5509   -0.0611 C.3       1 <0>        -0.1234
      2 C2         -0.0142    0.0211   -0.0571 C.3       1 <0>         0.1909
      3 H1         -1.0304   -0.3730   -0.0441 H         1 <0>         0.0440
      4 N1          0.7329   -0.4968   -1.2347 N.3       1 <0>        -0.6584
      5 C3          1.1799   -1.8366   -0.7730 C.3       1 <0>         0.1976
      6 H2          0.3736   -2.5625   -0.8779 H         1 <0>         0.0666
      7 O1          1.5134   -1.6554    0.6155 O.3       1 <0>        -0.2165
      8 N2          0.7574   -0.4884    1.1008 N.3       1 <0>        -0.4701
      9 C4          2.4091   -2.2895   -1.5636 C.3       1 <0>         0.1344
     10 N3          3.4975   -1.3289   -1.3667 N.am      1 <0>        -0.6979
     11 C5          4.6861   -1.5241   -1.9714 C.2       1 <0>         0.5740
     12 O2          4.8865   -2.5436   -2.6041 O.2       1 <0>        -0.5594
     13 C6          5.7410   -0.5045   -1.8661 C.2       1 <0>        -0.2755
     14 C7          6.9285   -0.6364   -2.5830 C.2       1 <0>         0.0629
     15 C8          7.9060    0.3506   -2.4579 C.2       1 <0>        -0.2428
     16 C9          7.6952    1.4196   -1.6481 C.2       1 <0>         0.1641
     17 N4          6.5436    1.5541   -0.9480 N.am      1 <0>        -0.6009
     18 C10         5.5649    0.6336   -1.0374 C.2       1 <0>         0.5279
     19 O3          4.5332    0.7749   -0.4039 O.2       1 <0>        -0.5294
     20 H3          0.9916    1.9261   -0.0616 H         1 <0>         0.0801
     21 H4         -0.5494    1.9060   -0.9522 H         1 <0>         0.0677
     22 H5         -0.5502    1.9106    0.8277 H         1 <0>         0.0656
     23 H6          0.1298   -0.5745   -2.0399 H         1 <0>         0.3587
     24 H7          0.1439   -0.7424    1.8606 H         1 <0>         0.3503
     25 H8          2.7242   -3.2725   -1.2135 H         1 <0>         0.0797
     26 H9          2.1597   -2.3439   -2.6233 H         1 <0>         0.0813
     27 H10         3.3627   -0.5524   -0.8013 H         1 <0>         0.4282
     28 H11         7.0897   -1.4897   -3.2251 H         1 <0>         0.1507
     29 H12         8.8325    0.2641   -3.0060 H         1 <0>         0.1561
     30 H13         8.4603    2.1768   -1.5602 H         1 <0>         0.1727
     31 H14         6.4202    2.3280   -0.3765 H         1 <0>         0.4209
@<TRIPOS>BOND
     1    1    2 1
     2    1   20 1
     3    1   21 1
     4    1   22 1
     5    2    3 1
     6    2    8 1
     7    2    4 1
     8    4    5 1
     9    4   23 1
    10    5    6 1
    11    5    7 1
    12    5    9 1
    13    7    8 1
    14    8   24 1
    15    9   10 1
    16    9   25 1
    17    9   26 1
    18   10   11 am
    19   10   27 1
    20   11   12 2
    21   11   13 1
    22   13   18 1
    23   13   14 2
    24   14   15 1
    25   14   28 1
    26   15   16 2
    27   15   29 1
    28   16   17 1
    29   16   30 1
    30   17   18 am
    31   17   31 1
    32   18   19 2
@<TRIPOS>MOLECULE
ZINC05452424
   38    41     0     0     0
SMALL
USER_CHARGES
N-(1,3-benzodioxol-5-ylmethyl)-2,3-dioxo-1,4-dihydroquinoxaline-6-carboxamide
@<TRIPOS>ATOM
      1 C1          2.8857   -1.6459    1.6772 C.ar      1 <0>        -0.0866
      2 C2          1.6169   -1.5522    1.1354 C.ar      1 <0>        -0.1019
      3 C3          1.1833   -0.3558    0.5887 C.ar      1 <0>         0.0430
      4 C4          2.0285    0.7517    0.5865 C.ar      1 <0>         0.0307
      5 C5          3.2980    0.6505    1.1310 C.ar      1 <0>        -0.0810
      6 C6          3.7242   -0.5473    1.6749 C.ar      1 <0>        -0.1051
      7 C7          5.1058   -0.6547    2.2671 C.3       1 <0>         0.1665
      8 N1          6.0512   -1.0718    1.2286 N.am      1 <0>        -0.7218
      9 C8          7.3547   -1.2344    1.5299 C.2       1 <0>         0.5627
     10 O1          7.7461   -1.0350    2.6636 O.2       1 <0>        -0.5294
     11 C9          8.3075   -1.6548    0.4832 C.ar      1 <0>        -0.1236
     12 C10         7.8582   -1.8845   -0.8214 C.ar      1 <0>        -0.0696
     13 C11         8.7444   -2.2765   -1.7971 C.ar      1 <0>        -0.1245
     14 C12        10.0934   -2.4471   -1.4927 C.ar      1 <0>         0.1467
     15 C13        10.5493   -2.2183   -0.1911 C.ar      1 <0>         0.1104
     16 C14         9.6574   -1.8178    0.7927 C.ar      1 <0>        -0.0547
     17 N2         11.8951   -2.3849    0.1277 N.am      1 <0>        -0.6331
     18 H1         12.2021   -2.2234    1.0336 H         1 <0>         0.4262
     19 C15        12.7716   -2.7699   -0.8221 C.2       1 <0>         0.5091
     20 O2         13.9461   -2.9171   -0.5501 O.2       1 <0>        -0.4619
     21 C16        12.2827   -3.0134   -2.2103 C.2       1 <0>         0.5092
     22 O3         13.0555   -3.3607   -3.0804 O.2       1 <0>        -0.4596
     23 N3         10.9748   -2.8438   -2.4897 N.am      1 <0>        -0.6335
     24 H2         10.6484   -3.0000   -3.3897 H         1 <0>         0.4253
     25 O4          1.3764    1.7968   -0.0014 O.3       1 <0>        -0.3071
     26 C17        -0.0175    1.4356    0.0099 C.3       1 <0>         0.2126
     27 O5          0.0021   -0.0041    0.0020 O.3       1 <0>        -0.3073
     28 H3          3.2223   -2.5798    2.1027 H         1 <0>         0.1424
     29 H4          0.9636   -2.4122    1.1388 H         1 <0>         0.1399
     30 H5          3.9552    1.5075    1.1309 H         1 <0>         0.1388
     31 H6          5.4071    0.3145    2.6647 H         1 <0>         0.0837
     32 H7          5.1005   -1.3912    3.0706 H         1 <0>         0.0862
     33 H8          5.7389   -1.2309    0.3241 H         1 <0>         0.4029
     34 H9          6.8136   -1.7541   -1.0626 H         1 <0>         0.1393
     35 H10         8.3934   -2.4532   -2.8031 H         1 <0>         0.1478
     36 H11        10.0072   -1.6367    1.7983 H         1 <0>         0.1544
     37 H12        -0.5191    1.8168   -0.8796 H         1 <0>         0.1349
     38 H13        -0.5020    1.8071    0.9129 H         1 <0>         0.0877
@<TRIPOS>BOND
     1    1    6 ar
     2    1    2 ar
     3    1   28 1
     4    2    3 ar
     5    2   29 1
     6    3   27 1
     7    3    4 ar
     8    4    5 ar
     9    4   25 1
    10    5    6 ar
    11    5   30 1
    12    6    7 1
    13    7    8 1
    14    7   31 1
    15    7   32 1
    16    8    9 am
    17    8   33 1
    18    9   10 2
    19    9   11 1
    20   11   16 ar
    21   11   12 ar
    22   12   13 ar
    23   12   34 1
    24   13   14 ar
    25   13   35 1
    26   14   23 1
    27   14   15 ar
    28   15   16 ar
    29   15   17 1
    30   16   36 1
    31   17   18 1
    32   17   19 am
    33   19   20 2
    34   19   21 1
    35   21   22 2
    36   21   23 am
    37   23   24 1
    38   25   26 1
    39   26   27 1
    40   26   37 1
    41   26   38 1
@<TRIPOS>MOLECULE
ZINC44935838
   40    42     0     0     0
SMALL
USER_CHARGES

@<TRIPOS>ATOM
      1 C1         -0.0181    1.3829    0.0037 C.ar      1 <0>        -0.0043
      2 C2          1.1664    2.0979   -0.0063 C.ar      1 <0>        -0.1261
      3 C3          2.3762    1.4269   -0.0222 C.ar      1 <0>         0.1375
      4 C4          2.3971    0.0327   -0.0284 C.ar      1 <0>         0.0771
      5 C5          1.2083   -0.6772   -0.0176 C.ar      1 <0>        -0.0275
      6 C6          0.0026    0.0007   -0.0021 C.ar      1 <0>        -0.6739
      7 S1         -1.5115   -0.9004    0.0116 S.o2      1 <0>         2.6848
      8 O1         -1.2174   -2.1805    0.5540 O.2       1 <0>        -0.9390
      9 O2         -2.4910   -0.0402    0.5772 O.2       1 <0>        -0.9471
     10 N1         -1.9504   -1.1444   -1.5664 N.pl3     1 <0>        -1.1082
     11 C7         -1.1182   -1.9779   -2.4376 C.3       1 <0>         0.1393
     12 H1         -0.0765   -1.9090   -2.1243 H         1 <0>         0.1178
     13 C8         -1.2521   -1.5015   -3.8860 C.3       1 <0>        -0.1213
     14 C9         -2.6607   -1.0076   -4.1615 C.3       1 <0>        -0.1277
     15 C10        -3.7136   -2.0997   -4.1124 C.3       1 <0>        -0.1466
     16 C11        -3.8691   -2.6436   -2.6909 C.3       1 <0>         0.0896
     17 N2         -2.8778   -3.7118   -2.4843 N.am      1 <0>        -0.7168
     18 C12        -1.5797   -3.4178   -2.3566 C.2       1 <0>         0.5114
     19 O3         -0.7696   -4.3032   -2.1814 O.2       1 <0>        -0.5317
     20 N3          3.6302   -0.6343   -0.0463 N.am      1 <0>        -0.6603
     21 C13         4.7516    0.0547    0.2584 C.2       1 <0>         0.4905
     22 O4          5.8327   -0.4939    0.2194 O.2       1 <0>        -0.4990
     23 C14         4.6540    1.5081    0.6465 C.3       1 <0>         0.0486
     24 O5          3.5500    2.1135   -0.0313 O.3       1 <0>        -0.2961
     25 H2         -0.9624    1.9067    0.0206 H         1 <0>         0.1548
     26 H3          1.1466    3.1777   -0.0020 H         1 <0>         0.1539
     27 H4          1.2224   -1.7571   -0.0219 H         1 <0>         0.1537
     28 H5         -2.7584   -0.7355   -1.9139 H         1 <0>         0.4254
     29 H6         -0.5461   -0.6902   -4.0637 H         1 <0>         0.0879
     30 H7         -1.0238   -2.3285   -4.5584 H         1 <0>         0.0841
     31 H8         -2.9135   -0.2471   -3.4227 H         1 <0>         0.0679
     32 H9         -2.6814   -0.5485   -5.1499 H         1 <0>         0.0781
     33 H10        -4.6679   -1.6928   -4.4468 H         1 <0>         0.0833
     34 H11        -3.4187   -2.9120   -4.7767 H         1 <0>         0.0758
     35 H12        -3.6985   -1.8422   -1.9720 H         1 <0>         0.0847
     36 H13        -4.8735   -3.0467   -2.5614 H         1 <0>         0.0925
     37 H14        -3.1680   -4.6362   -2.4378 H         1 <0>         0.4041
     38 H15         3.6774   -1.5761   -0.2735 H         1 <0>         0.4217
     39 H16         4.5060    1.5869    1.7235 H         1 <0>         0.1077
     40 H17         5.5753    2.0204    0.3689 H         1 <0>         0.1536
@<TRIPOS>BOND
     1    1    6 ar
     2    1    2 ar
     3    1   25 1
     4    2    3 ar
     5    2   26 1
     6    3   24 1
     7    3    4 ar
     8    4    5 ar
     9    4   20 1
    10    5    6 ar
    11    5   27 1
    12    6    7 1
    13    7    8 2
    14    7    9 2
    15    7   10 1
    16   10   11 1
    17   10   28 1
    18   11   12 1
    19   11   18 1
    20   11   13 1
    21   13   14 1
    22   13   29 1
    23   13   30 1
    24   14   15 1
    25   14   31 1
    26   14   32 1
    27   15   16 1
    28   15   33 1
    29   15   34 1
    30   16   17 1
    31   16   35 1
    32   16   36 1
    33   17   18 am
    34   17   37 1
    35   18   19 2
    36   20   21 am
    37   20   38 1
    38   21   22 2
    39   21   23 1
    40   23   24 1
    41   23   39 1
    42   23   40 1
@<TRIPOS>MOLECULE
ZINC16720756
   47    50     0     0     0
SMALL
USER_CHARGES

@<TRIPOS>ATOM
      1 C1          1.0737    0.7943   -0.9396 C.3       1 <0>        -0.1498
      2 C2          0.9101   -0.7144   -0.7447 C.3       1 <0>        -0.0980
      3 C3         -0.5779   -1.0703   -0.7487 C.3       1 <0>        -0.1128
      4 C4         -0.7403   -2.5814   -0.5643 C.3       1 <0>        -0.1165
      5 C5         -0.1023   -3.0053    0.7541 C.3       1 <0>         0.1396
      6 C6          1.3771   -2.6373    0.7805 C.3       1 <0>        -0.1171
      7 C7          1.5319   -1.1261    0.5913 C.3       1 <0>        -0.1128
      8 C8         -0.2810   -4.4899    0.9737 C.2       1 <0>         0.5296
      9 O1          0.1367   -5.3903    0.2778 O.2       1 <0>        -0.4348
     10 N1         -1.0039   -4.6018    2.1074 N.am      1 <0>        -0.3982
     11 C9         -1.3002   -3.4028    2.6237 C.2       1 <0>         0.7000
     12 O2         -1.9430   -3.2460    3.6432 O.2       1 <0>        -0.5135
     13 N2         -0.8055   -2.3898    1.8869 N.am      1 <0>        -0.7025
     14 N3         -1.3966   -5.8217    2.6736 N.pl3     1 <0>        -0.4690
     15 C10        -0.7670   -6.2896    3.7829 C.2       1 <0>         0.2987
     16 C11        -1.0495   -7.5527    4.2539 C.2       1 <0>        -0.3096
     17 C12        -1.5178   -8.6174    3.3424 C.ar      1 <0>         0.0428
     18 C13        -1.6919   -8.3918    1.9818 C.ar      1 <0>        -0.1750
     19 C14        -2.1310   -9.4190    1.1719 C.ar      1 <0>        -0.0586
     20 C15        -2.3995  -10.6714    1.7048 C.ar      1 <0>        -0.1467
     21 C16        -2.2328  -10.9141    3.0512 C.ar      1 <0>        -0.0269
     22 C17        -1.7892   -9.8894    3.8877 C.ar      1 <0>        -0.1629
     23 C18        -1.5979  -10.1059    5.3277 C.2       1 <0>         0.5724
     24 O3         -1.8303  -11.2008    5.8038 O.2       1 <0>        -0.5036
     25 N4         -1.1702   -9.1154    6.1275 N.am      1 <0>        -0.6638
     26 C19        -0.8885   -7.8829    5.6746 C.2       1 <0>         0.5919
     27 O4         -0.4996   -7.0298    6.4512 O.2       1 <0>        -0.5168
     28 H1          2.1338    1.0479   -0.9385 H         1 <0>         0.0581
     29 H2          0.6308    1.0878   -1.8913 H         1 <0>         0.0580
     30 H3          0.5731    1.3219   -0.1277 H         1 <0>         0.0560
     31 H4          1.4114   -1.2418   -1.5563 H         1 <0>         0.0782
     32 H5         -1.0786   -0.5487    0.0670 H         1 <0>         0.0673
     33 H6         -1.0209   -0.7703   -1.6983 H         1 <0>         0.0794
     34 H7         -1.8006   -2.8339   -0.5524 H         1 <0>         0.0787
     35 H8         -0.2523   -3.1023   -1.3880 H         1 <0>         0.0953
     36 H9          1.8069   -2.9292    1.7388 H         1 <0>         0.0792
     37 H10         1.8956   -3.1591   -0.0239 H         1 <0>         0.0954
     38 H11         2.5903   -0.8657    0.5952 H         1 <0>         0.0798
     39 H12         1.0261   -0.6043    1.4037 H         1 <0>         0.0675
     40 H13        -0.8961   -1.4413    2.0684 H         1 <0>         0.4474
     41 H14        -2.1179   -6.3322    2.2736 H         1 <0>         0.4427
     42 H15        -0.0452   -5.6711    4.2955 H         1 <0>         0.1719
     43 H16        -1.4852   -7.4187    1.5615 H         1 <0>         0.1308
     44 H17        -2.2672   -9.2465    0.1145 H         1 <0>         0.1322
     45 H18        -2.7432  -11.4648    1.0576 H         1 <0>         0.1347
     46 H19        -2.4444  -11.8925    3.4566 H         1 <0>         0.1421
     47 H20        -1.0567   -9.2992    7.0731 H         1 <0>         0.4189
@<TRIPOS>BOND
     1    1    2 1
     2    1   28 1
     3    1   29 1
     4    1   30 1
     5    2    7 1
     6    2    3 1
     7    2   31 1
     8    3    4 1
     9    3   32 1
    10    3   33 1
    11    4    5 1
    12    4   34 1
    13    4   35 1
    14    5   13 1
    15    5    6 1
    16    5    8 1
    17    6    7 1
    18    6   36 1
    19    6   37 1
    20    7   38 1
    21    7   39 1
    22    8    9 2
    23    8   10 am
    24   10   11 am
    25   10   14 1
    26   11   12 2
    27   11   13 am
    28   13   40 1
    29   14   15 1
    30   14   41 1
    31   15   16 2
    32   15   42 1
    33   16   26 1
    34   16   17 1
    35   17   22 ar
    36   17   18 ar
    37   18   19 ar
    38   18   43 1
    39   19   20 ar
    40   19   44 1
    41   20   21 ar
    42   20   45 1
    43   21   22 ar
    44   21   46 1
    45   22   23 1
    46   23   24 2
    47   23   25 am
    48   25   26 am
    49   25   47 1
    50   26   27 2
@<TRIPOS>MOLECULE
ZINC18089842
   41    42     0     0     0
SMALL
USER_CHARGES

@<TRIPOS>ATOM
      1 C1          0.5107    1.3575   -0.2160 C.3       1 <0>        -0.1273
      2 C2          0.3674   -0.1416   -0.1605 C.ar      1 <0>         0.3054
      3 C3          0.2382   -0.8957   -1.3404 C.ar      1 <0>        -0.2143
      4 C4          0.2374   -0.2948   -2.6085 C.ar      1 <0>        -0.0069
      5 C5          0.1100   -1.0675   -3.7210 C.ar      1 <0>        -0.2007
      6 C6         -0.0210   -2.4567   -3.6196 C.ar      1 <0>         0.2075
      7 C7         -0.0243   -3.0769   -2.3893 C.ar      1 <0>        -0.1877
      8 C8          0.1063   -2.3046   -1.2281 C.ar      1 <0>         0.2428
      9 N1          0.1101   -2.8570   -0.0078 N.ar      1 <0>        -0.6071
     10 C9          0.2345   -2.0984    1.0629 C.ar      1 <0>         0.5681
     11 N2          0.2346   -2.7034    2.3112 N.pl3     1 <0>        -0.5951
     12 C10        -0.0119   -4.0476    2.4215 C.2       1 <0>         0.6499
     13 N3         -0.1389   -4.6039    3.6227 N.2       1 <0>        -0.5992
     14 C11        -0.2382   -3.8355    4.7048 C.2       1 <0>         0.5013
     15 O1         -0.3250   -2.6287    4.5874 O.2       1 <0>        -0.5289
     16 C12        -0.2429   -4.4615    6.0756 C.3       1 <0>        -0.1523
     17 N4         -0.1252   -4.8038    1.3145 N.pl3     1 <0>        -0.5146
     18 C13        -0.2456   -6.1028    1.4189 C.2       1 <0>         0.5386
     19 O2         -0.2560   -6.6808    2.6306 O.3       1 <0>        -0.3685
     20 C14        -0.3725   -6.9499    0.1789 C.3       1 <0>        -0.1932
     21 N5          0.3657   -0.7755    0.9940 N.ar      1 <0>        -0.5445
     22 O3         -0.1470   -3.2026   -4.7471 O.3       1 <0>        -0.3030
     23 C15        -0.1371   -2.5023   -5.9927 C.3       1 <0>         0.0175
     24 H1          1.5667    1.6193   -0.2826 H         1 <0>         0.1095
     25 H2         -0.0145    1.7405   -1.0910 H         1 <0>         0.0987
     26 H3          0.0836    1.7970    0.6853 H         1 <0>         0.1020
     27 H4          0.3371    0.7767   -2.7009 H         1 <0>         0.1547
     28 H5          0.1097   -0.6022   -4.6956 H         1 <0>         0.1513
     29 H6         -0.1264   -4.1499   -2.3209 H         1 <0>         0.1486
     30 H7         -0.1575   -5.5440    5.9810 H         1 <0>         0.0933
     31 H8          0.5994   -4.0796    6.6524 H         1 <0>         0.1047
     32 H9         -1.1742   -4.2137    6.5850 H         1 <0>         0.1039
     33 H10         0.6192   -7.2519   -0.1579 H         1 <0>         0.1543
     34 H11        -0.9655   -7.8364    0.4036 H         1 <0>         0.1434
     35 H12        -0.8629   -6.3740   -0.6059 H         1 <0>         0.1319
     36 H13        -0.9640   -1.7926   -6.0172 H         1 <0>         0.0668
     37 H14         0.8056   -1.9656   -6.1004 H         1 <0>         0.0668
     38 H15        -0.2452   -3.2144   -6.8108 H         1 <0>         0.1139
     39 H16         0.4089   -2.1755    3.1061 H         1 <0>         0.4613
     40 H17        -0.3490   -7.6430    2.6066 H         1 <0>         0.4486
     41 H18        -0.1176   -4.3863    0.4390 H         1 <0>         0.4586
@<TRIPOS>BOND
     1    1    2 1
     2    1   24 1
     3    1   25 1
     4    1   26 1
     5    2   21 ar
     6    2    3 ar
     7    3    8 ar
     8    3    4 ar
     9    4    5 ar
    10    4   27 1
    11    5    6 ar
    12    5   28 1
    13    6    7 ar
    14    6   22 1
    15    7    8 ar
    16    7   29 1
    17    8    9 ar
    18    9   10 ar
    19   10   11 1
    20   10   21 ar
    21   11   12 1
    22   11   39 1
    23   12   13 2
    24   12   17 1
    25   13   14 1
    26   14   15 2
    27   14   16 1
    28   16   30 1
    29   16   31 1
    30   16   32 1
    31   17   18 2
    32   17   41 1
    33   18   19 1
    34   18   20 1
    35   19   40 1
    36   20   33 1
    37   20   34 1
    38   20   35 1
    39   22   23 1
    40   23   36 1
    41   23   37 1
    42   23   38 1
@<TRIPOS>MOLECULE
ZINC30010065
   45    47     0     0     0
SMALL
USER_CHARGES

@<TRIPOS>ATOM
      1 C1         -0.0611    1.5197    0.0016 C.3       1 <0>        -0.1661
      2 C2         -0.0141   -0.0096   -0.0039 C.3       1 <0>         0.1337
      3 H1         -1.0256   -0.4045    0.0905 H         1 <0>         0.1034
      4 C3          0.8230   -0.4905    1.1533 C.2       1 <0>         0.5175
      5 O1          1.9967   -0.7471    0.9874 O.2       1 <0>        -0.5289
      6 N1          0.2672   -0.6356    2.3726 N.am      1 <0>        -0.6096
      7 C4         -1.1763   -0.4377    2.5650 C.3       1 <0>         0.0884
      8 C5         -1.7619   -1.6989    3.2120 C.3       1 <0>         0.0944
      9 N2         -0.9353   -2.0583    4.3728 N.am      1 <0>        -0.6174
     10 C6          0.5082   -2.2561    4.1804 C.3       1 <0>         0.0877
     11 C7          1.0929   -1.0004    3.5323 C.3       1 <0>         0.0956
     12 C8         -1.4910   -2.2033    5.5921 C.2       1 <0>         0.5156
     13 O2         -2.6625   -1.9379    5.7601 O.2       1 <0>        -0.5413
     14 C9         -0.6568   -2.6952    6.7467 C.3       1 <0>        -0.1809
     15 N3          0.5768   -0.4755   -1.2609 N.pl3     1 <0>        -0.7293
     16 C10        -0.2259   -0.6298   -2.3963 C.ar      1 <0>         0.2332
     17 C11        -1.5833   -0.3351   -2.3317 C.ar      1 <0>        -0.1871
     18 C12        -2.3804   -0.4849   -3.4488 C.ar      1 <0>        -0.0520
     19 C13        -1.8268   -0.9306   -4.6394 C.ar      1 <0>         0.0324
     20 C14        -0.4642   -1.2274   -4.7076 C.ar      1 <0>         0.1419
     21 C15         0.3349   -1.0710   -3.5856 C.ar      1 <0>        -0.1839
     22 N4         -0.2074   -1.6444   -6.0116 N.am      1 <0>        -0.6434
     23 H2          0.6554   -1.9180   -6.3601 H         1 <0>         0.4350
     24 C16        -1.3601   -1.6035   -6.7059 C.2       1 <0>         0.6839
     25 O3         -1.4830   -1.9058   -7.8782 O.2       1 <0>        -0.5586
     26 N5         -2.3562   -1.1771   -5.9067 N.am      1 <0>        -0.6413
     27 H3         -3.2832   -1.0610   -6.1674 H         1 <0>         0.4344
     28 H4          0.9549    1.9144   -0.0033 H         1 <0>         0.0682
     29 H5         -0.5913    1.8700   -0.8840 H         1 <0>         0.0792
     30 H6         -0.5804    1.8640    0.8959 H         1 <0>         0.0706
     31 H7         -1.3443    0.4196    3.2169 H         1 <0>         0.0826
     32 H8         -1.6538   -0.2660    1.6003 H         1 <0>         0.1004
     33 H9         -2.7835   -1.5026    3.5372 H         1 <0>         0.1091
     34 H10        -1.7555   -2.5165    2.4912 H         1 <0>         0.0750
     35 H11         0.9857   -2.4278    5.1451 H         1 <0>         0.1083
     36 H12         0.6762   -3.1134    3.5286 H         1 <0>         0.0776
     37 H13         2.1136   -1.2003    3.2063 H         1 <0>         0.1087
     38 H14         1.0902   -0.1841    4.2547 H         1 <0>         0.0771
     39 H15         0.3806   -2.7969    6.4281 H         1 <0>         0.0831
     40 H16        -0.7163   -1.9812    7.5681 H         1 <0>         0.0972
     41 H17        -1.0314   -3.6634    7.0791 H         1 <0>         0.0985
     42 H18         1.5246   -0.6770   -1.3059 H         1 <0>         0.4112
     43 H19        -2.0153    0.0118   -1.4047 H         1 <0>         0.1316
     44 H20        -3.4344   -0.2555   -3.3953 H         1 <0>         0.1334
     45 H21         1.3900   -1.2959   -3.6364 H         1 <0>         0.1313
@<TRIPOS>BOND
     1    1    2 1
     2    1   28 1
     3    1   29 1
     4    1   30 1
     5    2    3 1
     6    2    4 1
     7    2   15 1
     8    4    5 2
     9    4    6 am
    10    6   11 1
    11    6    7 1
    12    7    8 1
    13    7   31 1
    14    7   32 1
    15    8    9 1
    16    8   33 1
    17    8   34 1
    18    9   10 1
    19    9   12 am
    20   10   11 1
    21   10   35 1
    22   10   36 1
    23   11   37 1
    24   11   38 1
    25   12   13 2
    26   12   14 1
    27   14   39 1
    28   14   40 1
    29   14   41 1
    30   15   16 1
    31   15   42 1
    32   16   21 ar
    33   16   17 ar
    34   17   18 ar
    35   17   43 1
    36   18   19 ar
    37   18   44 1
    38   19   26 1
    39   19   20 ar
    40   20   21 ar
    41   20   22 1
    42   21   45 1
    43   22   23 1
    44   22   24 am
    45   24   25 2
    46   24   26 am
    47   26   27 1
@<TRIPOS>MOLECULE
ZINC20215433
   34    35     0     0     0
SMALL
USER_CHARGES
1-[(5-nitro1H-pyrrole-2-carbonyl)amino]cyclohexane-1-carboxylic acid
@<TRIPOS>ATOM
      1 C1          0.6848    6.3818   -0.9545 C.2       1 <0>        -0.1382
      2 C2          0.4669    7.3423   -1.9472 C.2       1 <0>        -0.0891
      3 C3         -0.5151    6.8844   -2.7601 C.2       1 <0>         0.0414
      4 N1         -0.9190    5.6687   -2.3177 N.pl3     1 <0>        -0.5254
      5 H1         -1.7158    5.1271   -2.8485 H         1 <0>         0.4587
      6 C4         -0.1837    5.3399   -1.2015 C.2       1 <0>         0.0849
      7 C5         -0.3063    4.1083   -0.4144 C.2       1 <0>         0.5717
      8 O1          0.4053    3.9338    0.5573 O.2       1 <0>        -0.4440
      9 N2         -1.2071    3.1699   -0.7672 N.am      1 <0>        -0.7117
     10 C6         -1.3295    1.9397    0.0189 C.3       1 <0>         0.1454
     11 C7         -1.7064    2.2906    1.4596 C.3       1 <0>        -0.1202
     12 C8         -3.0417    3.0375    1.4700 C.3       1 <0>        -0.1123
     13 C9         -4.1279    2.1489    0.8607 C.3       1 <0>        -0.1179
     14 C10        -3.7510    1.7980   -0.5800 C.3       1 <0>        -0.1175
     15 C11        -2.4157    1.0511   -0.5904 C.3       1 <0>        -0.1061
     16 C12        -0.0143    1.2041    0.0087 C.2       1 <0>         0.4563
     17 O2          0.0021   -0.0041    0.0020 O.co2     1 <0>        -0.6435
     18 O3          1.1389    1.8910    0.0013 O.co2     1 <0>        -0.7278
     19 N3         -1.0587    7.5960   -3.9387 N.pl3     1 <0>         0.0641
     20 O4         -1.9458    7.0881   -4.6010 O.2       1 <0>        -0.1852
     21 O5         -0.6190    8.6894   -4.2463 O.3       1 <0>        -0.1476
     22 H2          1.4001    6.4435   -0.1477 H         1 <0>         0.1727
     23 H3          0.9867    8.2838   -2.0460 H         1 <0>         0.1671
     24 H4         -1.8504    3.3277   -1.6454 H         1 <0>         0.3902
     25 H5         -1.7983    1.3670    2.0499 H         1 <0>         0.0652
     26 H6         -0.9255    2.9295    1.8977 H         1 <0>         0.0842
     27 H7         -3.3127    3.2897    2.5058 H         1 <0>         0.0552
     28 H8         -2.9498    3.9612    0.8798 H         1 <0>         0.0551
     29 H9         -4.2199    1.2253    1.4510 H         1 <0>         0.0617
     30 H10        -5.0879    2.6859    0.8682 H         1 <0>         0.0544
     31 H11        -4.5319    1.1591   -1.0180 H         1 <0>         0.0600
     32 H12        -3.6591    2.7216   -1.1703 H         1 <0>         0.0528
     33 H13        -2.1447    0.7989   -1.6262 H         1 <0>         0.0617
     34 H14        -2.5076    0.1274   -0.0002 H         1 <0>         0.0838
@<TRIPOS>BOND
     1    1    6 2
     2    1    2 1
     3    1   22 1
     4    2    3 2
     5    2   23 1
     6    3    4 1
     7    3   19 1
     8    4    5 1
     9    4    6 1
    10    6    7 1
    11    7    8 2
    12    7    9 am
    13    9   10 1
    14    9   24 1
    15   10   15 1
    16   10   11 1
    17   10   16 1
    18   11   12 1
    19   11   25 1
    20   11   26 1
    21   12   13 1
    22   12   27 1
    23   12   28 1
    24   13   14 1
    25   13   29 1
    26   13   30 1
    27   14   15 1
    28   14   31 1
    29   14   32 1
    30   15   33 1
    31   15   34 1
    32   16   17 2
    33   16   18 1
    34   19   20 2
    35   19   21 1
@<TRIPOS>MOLECULE
ZINC37744802
   23    24     0     0     0
SMALL
USER_CHARGES

@<TRIPOS>ATOM
      1 C1         -0.0166    1.3764    0.0096 C.2       1 <0>        -0.2224
      2 C2          1.1570    2.0510    0.0020 C.2       1 <0>        -0.2506
      3 S1          2.3313    0.8504   -0.0156 S.3       1 <0>         0.2146
      4 C3          1.2743   -0.5850   -0.0133 C.2       1 <0>        -0.1854
      5 C4          0.0021   -0.0041    0.0020 C.2       1 <0>         0.1433
      6 N1         -1.1618   -0.7634    0.0095 N.pl3     1 <0>        -1.0152
      7 S2         -2.5050   -0.2277   -0.7974 S.o2      1 <0>         2.7251
      8 O1         -3.5053   -1.2225   -0.6262 O.2       1 <0>        -0.9573
      9 O2         -2.7009    1.1246   -0.4074 O.2       1 <0>        -0.9639
     10 C5         -2.1069   -0.2042   -2.5137 C.2       1 <0>        -0.8091
     11 C6         -1.5686    0.8357   -3.1919 C.2       1 <0>         0.1882
     12 N2         -1.4178    0.4544   -4.4776 N.pl3     1 <0>        -0.4638
     13 H1         -1.0543    0.9969   -5.1948 H         1 <0>         0.4424
     14 N3         -1.8787   -0.8634   -4.5933 N.2       1 <0>        -0.2923
     15 C7         -2.2858   -1.2591   -3.4145 C.2       1 <0>         0.1452
     16 C8          1.6278   -1.9475   -0.0243 C.2       1 <0>         0.4967
     17 O3          2.9124   -2.3027   -0.0385 O.co2     1 <0>        -0.6944
     18 O4          0.6778   -2.8825   -0.0207 O.co2     1 <0>        -0.6831
     19 H2         -0.9550    1.9109    0.0259 H         1 <0>         0.1652
     20 H3          1.3050    3.1208    0.0060 H         1 <0>         0.1829
     21 H4         -1.1874   -1.6071    0.4874 H         1 <0>         0.4397
     22 H5         -1.3066    1.7984   -2.7783 H         1 <0>         0.1943
     23 H6         -2.6926   -2.2313   -3.1785 H         1 <0>         0.2002
@<TRIPOS>BOND
     1    1    5 1
     2    1    2 2
     3    1   19 1
     4    2    3 1
     5    2   20 1
     6    3    4 1
     7    4    5 2
     8    4   16 1
     9    5    6 1
    10    6    7 1
    11    6   21 1
    12    7    8 2
    13    7    9 2
    14    7   10 1
    15   10   15 1
    16   10   11 2
    17   11   12 1
    18   11   22 1
    19   12   13 1
    20   12   14 1
    21   14   15 2
    22   15   23 1
    23   16   17 2
    24   16   18 1
@<TRIPOS>MOLECULE
ZINC42825653
   35    35     0     0     0
SMALL
USER_CHARGES

@<TRIPOS>ATOM
      1 C1         -0.0187    1.5275    0.0104 C.3       1 <0>        -0.1216
      2 C2          1.4223    2.0468   -0.0005 C.3       1 <0>        -0.1583
      3 C3          2.1506    1.4824   -1.2231 C.3       1 <0>         0.0604
      4 O1          2.1062    0.0545   -1.1851 O.3       1 <0>        -0.3748
      5 C4          0.7852   -0.4893   -1.2207 C.3       1 <0>         0.0793
      6 H1          0.2810   -0.1604   -2.1293 H         1 <0>         0.0663
      7 C5          0.0021   -0.0041    0.0020 C.3       1 <0>        -0.1488
      8 C6          0.8619   -2.0173   -1.2043 C.3       1 <0>         0.1456
      9 N1          1.6124   -2.4811   -2.3738 N.am      1 <0>        -0.7372
     10 C7          1.8082   -3.8002   -2.5691 C.2       1 <0>         0.6926
     11 O2          1.3622   -4.6049   -1.7750 O.2       1 <0>        -0.5366
     12 N2          2.4987   -4.2269   -3.6451 N.am      1 <0>        -0.6941
     13 C8          2.6946   -5.5460   -3.8404 C.2       1 <0>         0.5114
     14 O3          2.2496   -6.3487   -3.0482 O.2       1 <0>        -0.4721
     15 C9          3.4666   -6.0232   -5.0434 C.3       1 <0>        -0.1086
     16 C10         3.5433   -7.5512   -5.0271 C.3       1 <0>        -0.1703
     17 C11         4.3153   -8.0283   -6.2301 C.2       1 <0>         0.4922
     18 O4          4.7628   -7.2210   -7.0267 O.co2     1 <0>        -0.7018
     19 O5          4.4925   -9.2216   -6.4068 O.co2     1 <0>        -0.7004
     20 H2         -0.5266    1.8804    0.9080 H         1 <0>         0.0694
     21 H3         -0.5436    1.8900   -0.8734 H         1 <0>         0.0641
     22 H4          1.4168    3.1357   -0.0504 H         1 <0>         0.0729
     23 H5          1.9322    1.7255    0.9077 H         1 <0>         0.0723
     24 H6          1.6643    1.8371   -2.1318 H         1 <0>         0.0506
     25 H7          3.1888    1.8142   -1.2130 H         1 <0>         0.0952
     26 H8          0.4833   -0.3668    0.9103 H         1 <0>         0.0770
     27 H9         -1.0192   -0.3819   -0.0461 H         1 <0>         0.0782
     28 H10         1.3657   -2.3461   -0.2954 H         1 <0>         0.0760
     29 H11        -0.1458   -2.4320   -1.2314 H         1 <0>         0.0830
     30 H12         1.9684   -1.8389   -3.0076 H         1 <0>         0.4007
     31 H13         2.8547   -3.5847   -4.2789 H         1 <0>         0.4093
     32 H14         2.9627   -5.6944   -5.9523 H         1 <0>         0.0980
     33 H15         4.4743   -5.6085   -5.0163 H         1 <0>         0.0983
     34 H16         4.0471   -7.8800   -4.1182 H         1 <0>         0.0659
     35 H17         2.5356   -7.9658   -5.0542 H         1 <0>         0.0657
@<TRIPOS>BOND
     1    1    7 1
     2    1    2 1
     3    1   20 1
     4    1   21 1
     5    2    3 1
     6    2   22 1
     7    2   23 1
     8    3    4 1
     9    3   24 1
    10    3   25 1
    11    4    5 1
    12    5    6 1
    13    5    7 1
    14    5    8 1
    15    7   26 1
    16    7   27 1
    17    8    9 1
    18    8   28 1
    19    8   29 1
    20    9   10 am
    21    9   30 1
    22   10   11 2
    23   10   12 am
    24   12   13 am
    25   12   31 1
    26   13   14 2
    27   13   15 1
    28   15   16 1
    29   15   32 1
    30   15   33 1
    31   16   17 1
    32   16   34 1
    33   16   35 1
    34   17   18 2
    35   17   19 1
@<TRIPOS>MOLECULE
ZINC50567872
   39    39     0     0     0
SMALL
USER_CHARGES

@<TRIPOS>ATOM
      1 C1         -0.2333    1.7126    0.2998 C.3       1 <0>        -0.1457
      2 C2         -0.1341    0.1995    0.0956 C.3       1 <0>        -0.1055
      3 H1          0.3342   -0.0078   -0.8666 H         1 <0>         0.0746
      4 C3         -1.5365   -0.4127    0.1237 C.3       1 <0>        -0.1140
      5 C4         -1.4410   -1.9216   -0.1132 C.3       1 <0>        -0.1356
      6 C5         -0.6127   -2.5589    1.0069 C.3       1 <0>         0.1086
      7 N1          0.6863   -1.8765    1.0814 N.am      1 <0>        -0.6268
      8 C6          0.7096   -0.4136    1.2176 C.3       1 <0>         0.1667
      9 H2          0.2933   -0.1304    2.1844 H         1 <0>         0.0675
     10 C7          2.1505    0.0894    1.1093 C.3       1 <0>        -0.1362
     11 C8          1.8352   -2.5789    1.0258 C.2       1 <0>         0.7091
     12 O1          2.9025   -1.9972    0.9960 O.2       1 <0>        -0.5833
     13 N2          1.8010   -3.9260    1.0034 N.am      1 <0>        -0.7340
     14 C9          3.0492   -4.6913    1.0533 C.3       1 <0>         0.1194
     15 C10         2.7367   -6.1651    1.0152 C.2       1 <0>         0.4976
     16 O2          1.5848   -6.5393    0.9525 O.2       1 <0>        -0.5620
     17 N3          3.7373   -7.0673    1.0508 N.am      1 <0>        -0.6907
     18 C11         3.4335   -8.4999    1.0137 C.3       1 <0>         0.0503
     19 C12         4.7175   -9.2872    1.0651 C.2       1 <0>         0.4900
     20 O3          5.7872   -8.7055    1.1269 O.co2     1 <0>        -0.6902
     21 O4          4.6866  -10.5059    1.0448 O.co2     1 <0>        -0.6873
     22 H3          0.7658    2.1480    0.2809 H         1 <0>         0.0612
     23 H4         -0.8346    2.1482   -0.4981 H         1 <0>         0.0561
     24 H5         -0.7016    1.9194    1.2621 H         1 <0>         0.0551
     25 H6         -1.9949   -0.2258    1.0948 H         1 <0>         0.0638
     26 H7         -2.1459    0.0398   -0.6585 H         1 <0>         0.0648
     27 H8         -2.4418   -2.3534   -0.1164 H         1 <0>         0.0760
     28 H9         -0.9602   -2.1095   -1.0732 H         1 <0>         0.0677
     29 H10        -1.1374   -2.4507    1.9562 H         1 <0>         0.0694
     30 H11        -0.4582   -3.6161    0.7909 H         1 <0>         0.0818
     31 H12         2.1594    1.1785    1.1522 H         1 <0>         0.0416
     32 H13         2.7384   -0.3116    1.9349 H         1 <0>         0.0741
     33 H14         2.5803   -0.2405    0.1634 H         1 <0>         0.0716
     34 H15         0.9500   -4.3888    0.9542 H         1 <0>         0.4047
     35 H16         3.6705   -4.4294    0.1969 H         1 <0>         0.0970
     36 H17         3.5826   -4.4567    1.9745 H         1 <0>         0.0958
     37 H18         4.6586   -6.7680    1.1009 H         1 <0>         0.4115
     38 H19         2.8122   -8.7619    1.8702 H         1 <0>         0.0677
     39 H20         2.9001   -8.7345    0.0926 H         1 <0>         0.0677
@<TRIPOS>BOND
     1    1    2 1
     2    1   22 1
     3    1   23 1
     4    1   24 1
     5    2    3 1
     6    2    8 1
     7    2    4 1
     8    4    5 1
     9    4   25 1
    10    4   26 1
    11    5    6 1
    12    5   27 1
    13    5   28 1
    14    6    7 1
    15    6   29 1
    16    6   30 1
    17    7    8 1
    18    7   11 am
    19    8    9 1
    20    8   10 1
    21   10   31 1
    22   10   32 1
    23   10   33 1
    24   11   12 2
    25   11   13 am
    26   13   14 1
    27   13   34 1
    28   14   15 1
    29   14   35 1
    30   14   36 1
    31   15   16 2
    32   15   17 am
    33   17   18 1
    34   17   37 1
    35   18   19 1
    36   18   38 1
    37   18   39 1
    38   19   20 2
    39   19   21 1
@<TRIPOS>MOLECULE
ZINC62925443
   36    36     0     0     0
SMALL
USER_CHARGES

@<TRIPOS>ATOM
      1 C1         -0.0187    1.5258    0.0104 C.3       1 <0>        -0.1656
      2 C2          0.0021   -0.0041    0.0020 C.3       1 <0>         0.1137
      3 N1         -1.3723   -0.5112    0.0124 N.am      1 <0>        -0.7293
      4 C3         -1.6006   -1.8394    0.0075 C.2       1 <0>         0.5103
      5 O1         -0.6682   -2.6149   -0.0056 O.2       1 <0>        -0.5351
      6 C4         -3.0144   -2.3611    0.0182 C.3       1 <0>         0.1228
      7 N2         -2.9945   -3.8259    0.0101 N.am      1 <0>        -0.7397
      8 C5         -4.1524   -4.5156    0.0175 C.2       1 <0>         0.7286
      9 O2         -5.2135   -3.9221    0.0308 O.2       1 <0>        -0.5960
     10 N3         -4.1342   -5.8632    0.0100 N.am      1 <0>        -0.6278
     11 C6         -2.9398   -6.7391    0.0005 C.3       1 <0>         0.1020
     12 C7         -3.3478   -7.8857   -0.9585 C.3       1 <0>        -0.1137
     13 C8         -4.8446   -8.0918   -0.6303 C.3       1 <0>        -0.1467
     14 C9         -5.2993   -6.7674    0.0163 C.3       1 <0>         0.1544
     15 C10        -5.0181   -9.2474    0.3573 C.3       1 <0>        -0.1117
     16 C11        -5.6252   -8.3580   -1.8916 C.2       1 <0>         0.5064
     17 O3         -6.6257   -9.0539   -1.8540 O.co2     1 <0>        -0.6931
     18 O4         -5.2563   -7.8775   -2.9497 O.co2     1 <0>        -0.6902
     19 H1          1.0039    1.9031    0.0027 H         1 <0>         0.0741
     20 H2         -0.5459    1.8868   -0.8726 H         1 <0>         0.0629
     21 H3         -0.5289    1.8773    0.9072 H         1 <0>         0.0623
     22 H4          0.5123   -0.3556   -0.8948 H         1 <0>         0.0687
     23 H5          0.5293   -0.3651    0.8851 H         1 <0>         0.0680
     24 H6         -2.1181    0.1091    0.0229 H         1 <0>         0.4043
     25 H7         -3.5246   -2.0095    0.9150 H         1 <0>         0.0964
     26 H8         -3.5416   -2.0000   -0.8649 H         1 <0>         0.0975
     27 H9         -2.1480   -4.2994   -0.0005 H         1 <0>         0.4059
     28 H10        -2.0732   -6.2036   -0.3872 H         1 <0>         0.0688
     29 H11        -2.7388   -7.1263    0.9993 H         1 <0>         0.0665
     30 H12        -3.2185   -7.5841   -1.9979 H         1 <0>         0.0893
     31 H13        -2.7776   -8.7896   -0.7440 H         1 <0>         0.0690
     32 H14        -5.6261   -6.9447    1.0409 H         1 <0>         0.0580
     33 H15        -6.1114   -6.3305   -0.5648 H         1 <0>         0.0726
     34 H16        -4.4799   -9.0223    1.2780 H         1 <0>         0.0363
     35 H17        -6.0770   -9.3803    0.5786 H         1 <0>         0.0605
     36 H18        -4.6208  -10.1628   -0.0813 H         1 <0>         0.0494
@<TRIPOS>BOND
     1    1    2 1
     2    1   19 1
     3    1   20 1
     4    1   21 1
     5    2    3 1
     6    2   22 1
     7    2   23 1
     8    3    4 am
     9    3   24 1
    10    4    5 2
    11    4    6 1
    12    6    7 1
    13    6   25 1
    14    6   26 1
    15    7    8 am
    16    7   27 1
    17    8    9 2
    18    8   10 am
    19   10   14 1
    20   10   11 1
    21   11   12 1
    22   11   28 1
    23   11   29 1
    24   12   13 1
    25   12   30 1
    26   12   31 1
    27   13   14 1
    28   13   15 1
    29   13   16 1
    30   14   32 1
    31   14   33 1
    32   15   34 1
    33   15   35 1
    34   15   36 1
    35   16   17 2
    36   16   18 1
@<TRIPOS>MOLECULE
ZINC01736142
   26    27     0     0     0
SMALL
USER_CHARGES
5-(N'-phenylhydrazino)-1H-pyrimidine-2,4-dione
@<TRIPOS>ATOM
      1 C1         -0.0167    1.3786    0.0096 C.ar      1 <0>        -0.1737
      2 C2          1.1695    2.0894    0.0021 C.ar      1 <0>        -0.0669
      3 C3          2.3774    1.4200   -0.0131 C.ar      1 <0>        -0.1959
      4 C4          2.3998    0.0311   -0.0208 C.ar      1 <0>         0.2154
      5 C5          1.2064   -0.6798   -0.0132 C.ar      1 <0>        -0.1888
      6 C6          0.0021   -0.0041    0.0020 C.ar      1 <0>        -0.0667
      7 N1          3.6196   -0.6492   -0.0357 N.pl3     1 <0>        -0.5412
      8 N2          4.8223    0.0694   -0.0433 N.pl3     1 <0>        -0.5235
      9 C7          6.0509   -0.6158   -0.0583 C.2       1 <0>         0.0473
     10 C8          6.0827   -1.9685   -0.0598 C.2       1 <0>         0.0398
     11 N3          7.2929   -2.6184   -0.0791 N.am      1 <0>        -0.6246
     12 H1          7.3183   -3.6180   -0.0877 H         1 <0>         0.4457
     13 C9          8.4441   -1.9224   -0.0865 C.2       1 <0>         0.6918
     14 O1          9.5040   -2.5187   -0.0994 O.2       1 <0>        -0.5443
     15 N4          8.4414   -0.5767   -0.0801 N.am      1 <0>        -0.6508
     16 H2          9.3080   -0.0777   -0.0857 H         1 <0>         0.4452
     17 C10         7.2768    0.1024   -0.0662 C.2       1 <0>         0.5621
     18 O2          7.2756    1.3203   -0.0601 O.2       1 <0>        -0.5057
     19 H3         -0.9599    1.9046    0.0170 H         1 <0>         0.1216
     20 H4          1.1513    3.1692    0.0078 H         1 <0>         0.1241
     21 H5          3.3034    1.9757   -0.0186 H         1 <0>         0.1169
     22 H6          1.2204   -1.7597   -0.0194 H         1 <0>         0.1240
     23 H7         -0.9261   -0.5561    0.0076 H         1 <0>         0.1259
     24 H8          3.6341   -1.6190   -0.0407 H         1 <0>         0.4210
     25 H9          4.8079    1.0392   -0.0383 H         1 <0>         0.4355
     26 H10         5.1624   -2.5337   -0.0494 H         1 <0>         0.1658
@<TRIPOS>BOND
     1    1    6 ar
     2    1    2 ar
     3    1   19 1
     4    2    3 ar
     5    2   20 1
     6    3    4 ar
     7    3   21 1
     8    4    5 ar
     9    4    7 1
    10    5    6 ar
    11    5   22 1
    12    6   23 1
    13    7    8 1
    14    7   24 1
    15    8    9 1
    16    8   25 1
    17    9   17 1
    18    9   10 2
    19   10   11 1
    20   10   26 1
    21   11   12 1
    22   11   13 am
    23   13   14 2
    24   13   15 am
    25   15   16 1
    26   15   17 am
    27   17   18 2
@<TRIPOS>MOLECULE
ZINC20422448
   31    31     0     0     0
SMALL
USER_CHARGES
(2S)-2-(2-amino-4-methyl-thiazol-5-yl)sulfanyl-N-(methylcarbamoyl)propanamide
@<TRIPOS>ATOM
      1 C1         -1.2901   -0.7796    0.0097 C.3       1 <0>        -0.0876
      2 C2          0.0021   -0.0041    0.0020 C.2       1 <0>         0.1380
      3 C3         -0.0164    1.3565    0.0095 C.2       1 <0>        -0.2674
      4 S1          1.7362    1.7113   -0.0053 S.3       1 <0>        -0.0261
      5 C4          2.3047    0.0165   -0.0199 C.2       1 <0>         0.3979
      6 N1          1.1602   -0.6418   -0.0125 N.2       1 <0>        -0.5727
      7 N2          3.6036   -0.4763   -0.0345 N.pl3     1 <0>        -0.8202
      8 S2         -1.3878    2.4627    0.0224 S.3       1 <0>         0.0874
      9 C5         -0.6243    4.1082    0.0275 C.3       1 <0>        -0.1301
     10 H1          0.0959    4.3640    0.8187 H         1 <0>         0.1182
     11 C6          0.1368    4.3214   -1.2825 C.3       1 <0>        -0.1530
     12 C7         -1.6962    5.1589    0.1624 C.2       1 <0>         0.5394
     13 O1         -2.8460    4.8906   -0.1125 O.2       1 <0>        -0.4488
     14 N3         -1.3764    6.3968    0.5887 N.am      1 <0>        -0.7000
     15 C8         -2.3350    7.3365    0.7094 C.2       1 <0>         0.6950
     16 O2         -3.4878    7.0675    0.4338 O.2       1 <0>        -0.5313
     17 N4         -2.0153    8.5745    1.1357 N.am      1 <0>        -0.7517
     18 C9         -3.0573    9.5959    1.2669 C.3       1 <0>         0.1036
     19 H2         -2.1381   -0.0790    0.0216 H         1 <0>         0.0750
     20 H3         -1.3292   -1.4180    0.9046 H         1 <0>         0.0789
     21 H4         -1.3461   -1.4078   -0.8916 H         1 <0>         0.0792
     22 H5          3.7799   -1.5621   -0.0421 H         1 <0>         0.4424
     23 H6          4.4557    0.2193   -0.0384 H         1 <0>         0.4443
     24 H7          0.5998    5.3192   -1.2793 H         1 <0>         0.0734
     25 H8         -0.5614    4.2438   -2.1290 H         1 <0>         0.0797
     26 H9          0.9192    3.5545   -1.3810 H         1 <0>         0.0808
     27 H10        -0.3331    6.6402    0.8381 H         1 <0>         0.4333
     28 H11        -0.9720    8.8180    1.3851 H         1 <0>         0.4203
     29 H12        -2.6081   10.5340    1.6249 H         1 <0>         0.0811
     30 H13        -3.8164    9.2549    1.9862 H         1 <0>         0.0606
     31 H14        -3.5297    9.7656    0.2881 H         1 <0>         0.0604
@<TRIPOS>BOND
     1    1    2 1
     2    1   19 1
     3    1   20 1
     4    1   21 1
     5    2    6 1
     6    2    3 2
     7    3    4 1
     8    3    8 1
     9    4    5 1
    10    5    6 2
    11    5    7 1
    12    7   22 1
    13    7   23 1
    14    8    9 1
    15    9   10 1
    16    9   11 1
    17    9   12 1
    18   11   24 1
    19   11   25 1
    20   11   26 1
    21   12   13 2
    22   12   14 am
    23   14   15 am
    24   14   27 1
    25   15   16 2
    26   15   17 am
    27   17   18 1
    28   17   28 1
    29   18   29 1
    30   18   30 1
    31   18   31 1
@<TRIPOS>MOLECULE
ZINC37557844
   29    30     0     0     0
SMALL
USER_CHARGES

@<TRIPOS>ATOM
      1 C1         -0.0184    1.5028    0.0103 C.3       1 <0>        -0.0687
      2 C2          0.0021   -0.0041    0.0020 C.2       1 <0>         0.1004
      3 C3          0.0079   -0.8162   -1.1356 C.2       1 <0>        -0.4232
      4 C4          0.0274   -2.1132   -0.7213 C.2       1 <0>         0.4272
      5 N1          0.0335   -2.1096    0.6311 N.pl3     1 <0>        -0.3933
      6 N2          0.0230   -0.7757    1.0584 N.2       1 <0>        -0.3458
      7 C5          0.0528   -3.2917    1.4962 C.3       1 <0>         0.1278
      8 N3          0.0383   -3.2384   -1.5409 N.2       1 <0>        -1.1002
      9 S1          0.0281   -3.0634   -3.1876 S.o2      1 <0>         2.6429
     10 O1         -1.2265   -2.4891   -3.5273 O.2       1 <0>        -1.0043
     11 O2          1.2639   -2.4564   -3.5392 O.2       1 <0>        -1.0086
     12 C6          0.0461   -4.6820   -3.8837 C.2       1 <0>        -0.7920
     13 C7         -0.9734   -5.2632   -4.6429 C.2       1 <0>         0.3152
     14 N4         -0.5970   -6.4694   -4.9823 N.pl3     1 <0>        -0.3897
     15 N5          0.6780   -6.7004   -4.4506 N.pl3     1 <0>        -0.4706
     16 C8          1.0581   -5.5875   -3.7827 C.2       1 <0>         0.5663
     17 N6          2.2635   -5.4024   -3.1114 N.pl3     1 <0>        -0.7803
     18 H1          1.0042    1.8801    0.0026 H         1 <0>         0.0689
     19 H2         -0.5455    1.8639   -0.8728 H         1 <0>         0.0700
     20 H3         -0.5286    1.8543    0.9071 H         1 <0>         0.0649
     21 H4         -0.0013   -0.4757   -2.1604 H         1 <0>         0.1226
     22 H5          1.0851   -3.5716    1.7061 H         1 <0>         0.0522
     23 H6         -0.4598   -3.0660    2.4313 H         1 <0>         0.0690
     24 H7         -0.4527   -4.1171    0.9949 H         1 <0>         0.0804
     25 H8         -1.9116   -4.7965   -4.9044 H         1 <0>         0.2500
     26 H9          2.4424   -4.5637   -2.6581 H         1 <0>         0.4540
     27 H10         2.9246   -6.1121   -3.0970 H         1 <0>         0.4233
     28 H11         1.1980   -7.5135   -4.5473 H         1 <0>         0.4658
     29 H12        -1.1132   -7.0969   -5.5121 H         1 <0>         0.4757
@<TRIPOS>BOND
     1    1    2 1
     2    1   18 1
     3    1   19 1
     4    1   20 1
     5    2    6 2
     6    2    3 1
     7    3    4 2
     8    3   21 1
     9    4    5 1
    10    4    8 1
    11    5    6 1
    12    5    7 1
    13    7   22 1
    14    7   23 1
    15    7   24 1
    16    8    9 1
    17    9   10 2
    18    9   11 2
    19    9   12 1
    20   12   13 1
    21   12   16 2
    22   13   25 1
    23   13   14 2
    24   14   15 1
    25   14   29 1
    26   15   16 1
    27   15   28 1
    28   16   17 1
    29   17   26 1
    30   17   27 1
@<TRIPOS>MOLECULE
ZINC50244421
   33    34     0     0     0
SMALL
USER_CHARGES

@<TRIPOS>ATOM
      1 C1          1.0982   -0.4561    0.7635 C.ar      1 <0>        -0.0689
      2 C2          2.2736    0.2496    0.7467 C.ar      1 <0>        -0.1306
      3 C3          2.3766    1.4158   -0.0062 C.ar      1 <0>         0.1246
      4 C4          1.2877    1.8706   -0.7444 C.ar      1 <0>        -0.1542
      5 C5          0.1089    1.1705   -0.7329 C.ar      1 <0>        -0.0677
      6 C6          0.0014   -0.0026    0.0224 C.ar      1 <0>        -0.1326
      7 C7         -1.2623   -0.7576    0.0372 C.2       1 <0>         0.5164
      8 O1         -1.3545   -1.7830    0.6981 O.co2     1 <0>        -0.6838
      9 O2         -2.2203   -0.3596   -0.6113 O.co2     1 <0>        -0.6840
     10 N1          3.5727    2.1301   -0.0206 N.am      1 <0>        -0.6660
     11 C8          4.7485    1.4772    0.0664 C.2       1 <0>         0.7213
     12 O3          4.7709    0.2617    0.0598 O.2       1 <0>        -0.5507
     13 N2          5.8996    2.1719    0.1607 N.am      1 <0>        -0.6394
     14 C9          6.0165    3.6372    0.1862 C.3       1 <0>         0.0930
     15 C10         7.5154    3.9748    0.3308 C.3       1 <0>        -0.1426
     16 C11         8.1056    2.6791    0.9472 C.3       1 <0>         0.0038
     17 H1          7.9637    2.6607    2.0278 H         1 <0>         0.1618
     18 C12         7.2496    1.5881    0.2617 C.3       1 <0>         0.1140
     19 N3          9.5261    2.5319    0.6030 N.4       1 <0>        -0.6260
     20 H2          1.0205   -1.3633    1.3444 H         1 <0>         0.1319
     21 H3          3.1205   -0.0996    1.3187 H         1 <0>         0.1239
     22 H4          1.3713    2.7762   -1.3268 H         1 <0>         0.1169
     23 H5         -0.7357    1.5241   -1.3056 H         1 <0>         0.1340
     24 H6          3.5592    3.0973   -0.0933 H         1 <0>         0.4025
     25 H7          5.6301    4.0561   -0.7429 H         1 <0>         0.0881
     26 H8          5.4626    4.0385    1.0349 H         1 <0>         0.0867
     27 H9          7.9611    4.1761   -0.6434 H         1 <0>         0.1013
     28 H10         7.6570    4.8210    1.0031 H         1 <0>         0.1142
     29 H11         7.2275    0.6843    0.8706 H         1 <0>         0.1092
     30 H12         7.6432    1.3684   -0.7308 H         1 <0>         0.0854
     31 H13        10.0420    3.3231    0.9580 H         1 <0>         0.4407
     32 H14         9.8858    1.6838    1.0147 H         1 <0>         0.4414
     33 H15         9.6263    2.4876   -0.4000 H         1 <0>         0.4355
@<TRIPOS>BOND
     1    1    6 ar
     2    1    2 ar
     3    1   20 1
     4    2    3 ar
     5    2   21 1
     6    3    4 ar
     7    3   10 1
     8    4    5 ar
     9    4   22 1
    10    5    6 ar
    11    5   23 1
    12    6    7 1
    13    7    8 2
    14    7    9 1
    15   10   11 am
    16   10   24 1
    17   11   12 2
    18   11   13 am
    19   13   18 1
    20   13   14 1
    21   14   15 1
    22   14   25 1
    23   14   26 1
    24   15   16 1
    25   15   27 1
    26   15   28 1
    27   16   17 1
    28   16   18 1
    29   16   19 1
    30   18   29 1
    31   18   30 1
    32   19   31 1
    33   19   32 1
    34   19   33 1
@<TRIPOS>MOLECULE
ZINC52006770
   30    31     0     0     0
SMALL
USER_CHARGES

@<TRIPOS>ATOM
      1 C1         -0.0187    1.5258    0.0104 C.3       1 <0>        -0.1237
      2 C2          1.4167    2.0553   -0.0004 C.3       1 <0>        -0.1195
      3 C3          2.1328    1.5619   -1.2592 C.3       1 <0>        -0.1562
      4 C4          2.1536    0.0321   -1.2676 C.3       1 <0>         0.0964
      5 H1          2.6808   -0.3290   -0.3846 H         1 <0>         0.0751
      6 C5          0.7182   -0.4975   -1.2568 C.3       1 <0>         0.1649
      7 H2          0.7330   -1.5874   -1.2628 H         1 <0>         0.1005
      8 C6          0.0021   -0.0041    0.0020 C.3       1 <0>        -0.1314
      9 N1          0.0097   -0.0122   -2.4437 N.pl3     1 <0>        -0.6644
     10 C7         -1.0794   -0.7248   -2.9458 C.2       1 <0>         0.3283
     11 C8         -1.7962   -0.2511   -4.1414 C.2       1 <0>         0.5337
     12 O1         -1.4470    0.7685   -4.7063 O.2       1 <0>        -0.4796
     13 N2         -2.8453   -0.9633   -4.6024 N.am      1 <0>        -0.6509
     14 H3         -3.3267   -0.6629   -5.3891 H         1 <0>         0.4377
     15 C9         -3.2243   -2.0905   -3.9719 C.2       1 <0>         0.6762
     16 O2         -4.1714   -2.7239   -4.3976 O.2       1 <0>        -0.5432
     17 N3         -2.5736   -2.5286   -2.8799 N.am      1 <0>        -0.5277
     18 H4         -2.8663   -3.3444   -2.4443 H         1 <0>         0.4557
     19 N4         -1.4767   -1.8273   -2.3654 N.2       1 <0>        -0.2804
     20 O3          2.8225   -0.4288   -2.4434 O.3       1 <0>        -0.5619
     21 H5         -0.5289    1.8773    0.9072 H         1 <0>         0.0682
     22 H6         -0.5459    1.8868   -0.8726 H         1 <0>         0.0641
     23 H7          1.4019    3.1452    0.0056 H         1 <0>         0.0685
     24 H8          1.9439    1.6943    0.8826 H         1 <0>         0.0671
     25 H9          1.6057    1.9230   -2.1423 H         1 <0>         0.0698
     26 H10         3.1554    1.9392   -1.2670 H         1 <0>         0.0722
     27 H11         0.5293   -0.3651    0.8851 H         1 <0>         0.0794
     28 H12        -1.0205   -0.3814    0.0098 H         1 <0>         0.0778
     29 H13         0.2978    0.8046   -2.8803 H         1 <0>         0.4212
     30 H14         3.7394   -0.1305   -2.5166 H         1 <0>         0.3822
@<TRIPOS>BOND
     1    1    8 1
     2    1    2 1
     3    1   21 1
     4    1   22 1
     5    2    3 1
     6    2   23 1
     7    2   24 1
     8    3    4 1
     9    3   25 1
    10    3   26 1
    11    4    5 1
    12    4    6 1
    13    4   20 1
    14    6    7 1
    15    6    8 1
    16    6    9 1
    17    8   27 1
    18    8   28 1
    19    9   10 1
    20    9   29 1
    21   10   19 2
    22   10   11 1
    23   11   12 2
    24   11   13 am
    25   13   14 1
    26   13   15 am
    27   15   16 2
    28   15   17 am
    29   17   18 1
    30   17   19 1
    31   20   30 1
@<TRIPOS>MOLECULE
ZINC00510360
   30    31     0     0     0
SMALL
USER_CHARGES
N-[1-(aminocarbamoyl)-2-(2-thienyl)vinyl]furan-2-carboxamide
@<TRIPOS>ATOM
      1 C1          3.3763   -8.4250    0.8386 C.2       1 <0>        -0.2255
      2 C2          2.2861   -7.5782    0.5843 C.2       1 <0>        -0.1014
      3 C3          2.7836   -6.3085    0.5127 C.2       1 <0>        -0.0914
      4 O1          4.1171   -6.3710    0.7080 O.3       1 <0>        -0.1653
      5 C4          4.4775   -7.6452    0.9102 C.2       1 <0>         0.0086
      6 C5          2.0058   -5.0912    0.2613 C.2       1 <0>         0.6044
      7 O2          0.8021   -5.1617    0.0940 O.2       1 <0>        -0.4890
      8 N1          2.6235   -3.8942    0.2155 N.am      1 <0>        -0.6425
      9 C6          1.8690   -2.7211    0.0880 C.2       1 <0>         0.0785
     10 C7          2.4944   -1.5242   -0.0685 C.2       1 <0>        -0.0698
     11 C8          1.7381   -0.3264   -0.0838 C.2       1 <0>        -0.1576
     12 C9          2.1815    0.9887   -0.1352 C.2       1 <0>        -0.1343
     13 C10         1.2449    1.9919   -0.1392 C.2       1 <0>        -0.1657
     14 C11        -0.0768    1.6705   -0.0932 C.2       1 <0>        -0.1971
     15 S1         -0.0341   -0.1133   -0.0412 S.3       1 <0>         0.1461
     16 C12         0.4063   -2.7839    0.1234 C.2       1 <0>         0.5759
     17 O3         -0.1778   -2.7725    1.1915 O.2       1 <0>        -0.4996
     18 N2         -0.2932   -2.8542   -1.0265 N.am      1 <0>        -0.5532
     19 N3         -1.6582   -2.8108   -0.9993 N.3       1 <0>        -0.5928
     20 H1          3.3415   -9.4982    0.9551 H         1 <0>         0.1619
     21 H2          1.2538   -7.8736    0.4678 H         1 <0>         0.1632
     22 H3          5.4832   -7.9925    1.0951 H         1 <0>         0.2159
     23 H4          3.5907   -3.8451    0.2707 H         1 <0>         0.4232
     24 H5          3.5679   -1.4865   -0.1813 H         1 <0>         0.1515
     25 H6          3.2367    1.2163   -0.1707 H         1 <0>         0.1343
     26 H7          1.5537    3.0260   -0.1789 H         1 <0>         0.1318
     27 H8         -0.9339    2.3276   -0.0929 H         1 <0>         0.1828
     28 H9          0.1727   -2.9357   -1.8734 H         1 <0>         0.3995
     29 H10        -2.0406   -2.8734   -1.9309 H         1 <0>         0.3577
     30 H11        -2.0313   -3.5365   -0.4058 H         1 <0>         0.3498
@<TRIPOS>BOND
     1    1    5 2
     2    1    2 1
     3    1   20 1
     4    2    3 2
     5    2   21 1
     6    3    4 1
     7    3    6 1
     8    4    5 1
     9    5   22 1
    10    6    7 2
    11    6    8 am
    12    8    9 1
    13    8   23 1
    14    9   10 2
    15    9   16 1
    16   10   11 1
    17   10   24 1
    18   11   15 1
    19   11   12 2
    20   12   13 1
    21   12   25 1
    22   13   14 2
    23   13   26 1
    24   14   15 1
    25   14   27 1
    26   16   17 2
    27   16   18 am
    28   18   19 1
    29   18   28 1
    30   19   29 1
    31   19   30 1
@<TRIPOS>MOLECULE
ZINC37934306
   37    38     0     0     0
SMALL
USER_CHARGES

@<TRIPOS>ATOM
      1 C1          0.2894    1.4321    0.0325 C.3       1 <0>         0.0805
      2 N1          0.0021   -0.0041    0.0020 N.pl3     1 <0>        -0.6160
      3 C2         -0.2268   -0.6959    1.1935 C.ar      1 <0>         0.2422
      4 C3         -0.1271   -0.0358    2.4103 C.ar      1 <0>        -0.2188
      5 C4         -0.3552   -0.7269    3.5917 C.ar      1 <0>         0.2452
      6 C5         -0.6826   -2.0771    3.5531 C.ar      1 <0>        -0.1491
      7 C6         -0.7811   -2.7311    2.3404 C.ar      1 <0>        -0.5762
      8 C7         -0.5602   -2.0445    1.1617 C.ar      1 <0>        -0.1589
      9 S1         -1.1965   -4.4428    2.2959 S.o2      1 <0>         2.6989
     10 O1         -0.6911   -4.9516    1.0691 O.2       1 <0>        -0.9619
     11 O2         -0.8243   -4.9839    3.5560 O.2       1 <0>        -0.9617
     12 N2         -2.8469   -4.5440    2.2062 N.pl3     1 <0>        -1.2494
     13 N3         -0.2554   -0.0665    4.8184 N.pl3     1 <0>        -0.8721
     14 C8         -0.0452   -0.7146   -1.2783 C.3       1 <0>         0.1451
     15 H1         -0.1659   -1.7823   -1.0952 H         1 <0>         0.1181
     16 C9         -1.2363   -0.2004   -2.1038 C.3       1 <0>        -0.1456
     17 C10        -1.0826   -0.7306   -3.5580 C.3       1 <0>        -0.5732
     18 S2          0.7305   -0.5152   -3.8055 S.o2      1 <0>         2.3725
     19 O3          1.2545   -1.6824   -4.4238 O.2       1 <0>        -0.9300
     20 O4          0.9688    0.7555   -4.3952 O.2       1 <0>        -0.9311
     21 C11         1.2742   -0.4714   -2.0499 C.3       1 <0>        -0.6019
     22 H2          1.3654    1.5857    0.1154 H         1 <0>         0.0562
     23 H3         -0.0740    1.8950   -0.8850 H         1 <0>         0.0740
     24 H4         -0.2092    1.8843    0.8898 H         1 <0>         0.0757
     25 H5          0.1279    1.0133    2.4376 H         1 <0>         0.1312
     26 H6         -0.8600   -2.6156    4.4723 H         1 <0>         0.1387
     27 H7         -0.6426   -2.5576    0.2150 H         1 <0>         0.1397
     28 H8         -3.3821   -3.7352    2.1880 H         1 <0>         0.4171
     29 H9         -3.2785   -5.4120    2.1718 H         1 <0>         0.4214
     30 H10        -0.0265    0.8758    4.8447 H         1 <0>         0.4011
     31 H11        -0.4150   -0.5501    5.6439 H         1 <0>         0.4037
     32 H12        -2.1681   -0.5683   -1.6743 H         1 <0>         0.1066
     33 H13        -1.2383    0.8896   -2.1077 H         1 <0>         0.0933
     34 H14        -1.3679   -1.7803   -3.6270 H         1 <0>         0.1446
     35 H15        -1.6514   -0.1226   -4.2614 H         1 <0>         0.1459
     36 H16         1.6946    0.5026   -1.7995 H         1 <0>         0.1451
     37 H17         1.9919   -1.2667   -1.8485 H         1 <0>         0.1492
@<TRIPOS>BOND
     1    1    2 1
     2    1   22 1
     3    1   23 1
     4    1   24 1
     5    2    3 1
     6    2   14 1
     7    3    8 ar
     8    3    4 ar
     9    4    5 ar
    10    4   25 1
    11    5    6 ar
    12    5   13 1
    13    6    7 ar
    14    6   26 1
    15    7    8 ar
    16    7    9 1
    17    8   27 1
    18    9   10 2
    19    9   11 2
    20    9   12 1
    21   12   28 1
    22   12   29 1
    23   13   30 1
    24   13   31 1
    25   14   15 1
    26   14   21 1
    27   14   16 1
    28   16   17 1
    29   16   32 1
    30   16   33 1
    31   17   18 1
    32   17   34 1
    33   17   35 1
    34   18   19 2
    35   18   20 2
    36   18   21 1
    37   21   36 1
    38   21   37 1
@<TRIPOS>MOLECULE
ZINC42430318
   35    35     0     0     0
SMALL
USER_CHARGES

@<TRIPOS>ATOM
      1 C1          1.4821   -0.0808    1.4943 C.3       1 <0>        -0.1437
      2 C2          1.9382    1.1199    0.6630 C.3       1 <0>         0.1126
      3 C3          0.7204    1.9550    0.2624 C.3       1 <0>        -0.1394
      4 C4          2.8814    1.9663    1.4785 C.2       1 <0>         0.5038
      5 O1          4.0210    2.1570    1.0891 O.co2     1 <0>        -0.7023
      6 O2          2.5050    2.4603    2.5277 O.co2     1 <0>        -0.6690
      7 N1          2.6241    0.6473   -0.5422 N.am      1 <0>        -0.7070
      8 C5          1.9715   -0.1323   -1.4270 C.2       1 <0>         0.7004
      9 O3          0.8449   -0.5184   -1.1820 O.2       1 <0>        -0.5709
     10 N2          2.5677   -0.4838   -2.5835 N.am      1 <0>        -0.6308
     11 C6          1.8296   -1.2348   -3.6081 C.3       1 <0>         0.1202
     12 C7          1.9321   -0.4837   -4.9394 C.3       1 <0>        -0.1323
     13 C8          3.4063   -0.2461   -5.2743 C.3       1 <0>        -0.1377
     14 C9          4.0466    0.6152   -4.1833 C.3       1 <0>         0.0065
     15 H1          3.5134    1.5628   -4.1081 H         1 <0>         0.1469
     16 C10         3.9663   -0.1181   -2.8460 C.3       1 <0>         0.0919
     17 N3          5.4532    0.8697   -4.5219 N.4       1 <0>        -0.6315
     18 H2          0.7999   -0.6930    0.9044 H         1 <0>         0.0692
     19 H3          2.3497   -0.6758    1.7797 H         1 <0>         0.0424
     20 H4          0.9718    0.2708    2.3910 H         1 <0>         0.0667
     21 H5          0.2101    2.3067    1.1591 H         1 <0>         0.0691
     22 H6          1.0454    2.8105   -0.3298 H         1 <0>         0.0410
     23 H7          0.0382    1.3429   -0.3275 H         1 <0>         0.0622
     24 H8          3.5479    0.8954   -0.7033 H         1 <0>         0.3954
     25 H9          2.2628   -2.2292   -3.7153 H         1 <0>         0.0703
     26 H10         0.7829   -1.3195   -3.3160 H         1 <0>         0.1079
     27 H11         1.4709   -1.0776   -5.7285 H         1 <0>         0.0966
     28 H12         1.4187    0.4743   -4.8571 H         1 <0>         0.0795
     29 H13         3.9245   -1.2033   -5.3321 H         1 <0>         0.0891
     30 H14         3.4829    0.2665   -6.2332 H         1 <0>         0.0889
     31 H15         4.3289    0.5337   -2.0512 H         1 <0>         0.1075
     32 H16         4.5777   -1.0195   -2.8897 H         1 <0>         0.0872
     33 H17         5.5041    1.3540   -5.4056 H         1 <0>         0.4364
     34 H18         5.8750    1.4375   -3.8024 H         1 <0>         0.4408
     35 H19         5.9468   -0.0077   -4.5904 H         1 <0>         0.4325
@<TRIPOS>BOND
     1    1    2 1
     2    1   18 1
     3    1   19 1
     4    1   20 1
     5    2    3 1
     6    2    4 1
     7    2    7 1
     8    3   21 1
     9    3   22 1
    10    3   23 1
    11    4    5 2
    12    4    6 1
    13    7    8 am
    14    7   24 1
    15    8    9 2
    16    8   10 am
    17   10   16 1
    18   10   11 1
    19   11   12 1
    20   11   25 1
    21   11   26 1
    22   12   13 1
    23   12   27 1
    24   12   28 1
    25   13   14 1
    26   13   29 1
    27   13   30 1
    28   14   15 1
    29   14   16 1
    30   14   17 1
    31   16   31 1
    32   16   32 1
    33   17   33 1
    34   17   34 1
    35   17   35 1
@<TRIPOS>MOLECULE
ZINC49183346
   35    35     0     0     0
SMALL
USER_CHARGES

@<TRIPOS>ATOM
      1 C1         -0.0190    1.5602   -0.0645 C.3       1 <0>        -0.1678
      2 C2          0.0072    0.0305   -0.0709 C.3       1 <0>         0.1294
      3 N1         -1.3652   -0.4816   -0.0489 N.am      1 <0>        -0.7447
      4 C3         -1.5886   -1.8107   -0.0502 C.2       1 <0>         0.7127
      5 O1         -0.6512   -2.5848   -0.0696 O.2       1 <0>        -0.5668
      6 N2         -2.8512   -2.2818   -0.0300 N.am      1 <0>        -0.5300
      7 N3         -3.9314   -1.3898   -0.0077 N.am      1 <0>        -0.5281
      8 C4         -5.1940   -1.8609    0.0125 C.2       1 <0>         0.5665
      9 O2         -5.3956   -3.0600    0.0114 O.2       1 <0>        -0.5266
     10 C5         -6.3320   -0.9213    0.0361 C.ar      1 <0>        -0.1485
     11 C6         -6.1021    0.4572    0.0316 C.ar      1 <0>        -0.0659
     12 C7         -7.1658    1.3309    0.0531 C.ar      1 <0>        -0.1285
     13 C8         -8.4685    0.8429    0.0797 C.ar      1 <0>         0.1764
     14 C9         -8.7008   -0.5289    0.0847 C.ar      1 <0>        -0.1513
     15 C10        -7.6418   -1.4081    0.0570 C.ar      1 <0>        -0.0307
     16 N4         -9.5436    1.7306    0.1020 N.am      1 <0>        -0.6759
     17 C11        -9.4419    2.8955    0.7721 C.2       1 <0>         0.5123
     18 O3         -8.3891    3.2097    1.2857 O.2       1 <0>        -0.5210
     19 C12       -10.6363    3.8076    0.8833 C.3       1 <0>        -0.1727
     20 H1          1.0021    1.9412   -0.0808 H         1 <0>         0.0794
     21 H2         -0.5545    1.9181   -0.9439 H         1 <0>         0.0628
     22 H3         -0.5234    1.9112    0.8358 H         1 <0>         0.0630
     23 H4          0.5116   -0.3205   -0.9712 H         1 <0>         0.0714
     24 H5          0.5427   -0.3274    0.8085 H         1 <0>         0.0714
     25 H6         -2.1130    0.1360   -0.0335 H         1 <0>         0.3903
     26 H7         -3.0121   -3.2383   -0.0310 H         1 <0>         0.4448
     27 H8         -3.7706   -0.4333   -0.0068 H         1 <0>         0.4181
     28 H9         -5.0912    0.8366    0.0116 H         1 <0>         0.1267
     29 H10        -6.9889    2.3963    0.0497 H         1 <0>         0.1483
     30 H11        -9.7132   -0.9044    0.1058 H         1 <0>         0.1377
     31 H12        -7.8229   -2.4728    0.0560 H         1 <0>         0.1448
     32 H13       -10.3646    1.5098   -0.3649 H         1 <0>         0.4163
     33 H14       -11.2058    3.5532    1.7773 H         1 <0>         0.1008
     34 H15       -10.2988    4.8419    0.9496 H         1 <0>         0.1001
     35 H16       -11.2684    3.6874    0.0035 H         1 <0>         0.0851
@<TRIPOS>BOND
     1    1    2 1
     2    1   20 1
     3    1   21 1
     4    1   22 1
     5    2    3 1
     6    2   23 1
     7    2   24 1
     8    3    4 am
     9    3   25 1
    10    4    5 2
    11    4    6 am
    12    6    7 1
    13    6   26 1
    14    7    8 am
    15    7   27 1
    16    8    9 2
    17    8   10 1
    18   10   15 ar
    19   10   11 ar
    20   11   12 ar
    21   11   28 1
    22   12   13 ar
    23   12   29 1
    24   13   14 ar
    25   13   16 1
    26   14   15 ar
    27   14   30 1
    28   15   31 1
    29   16   17 am
    30   16   32 1
    31   17   18 2
    32   17   19 1
    33   19   33 1
    34   19   34 1
    35   19   35 1
@<TRIPOS>MOLECULE
ZINC54493340
   39    40     0     0     0
SMALL
USER_CHARGES

@<TRIPOS>ATOM
      1 C1         -0.0554    1.5861    0.1460 C.3       1 <0>        -0.1536
      2 C2         -0.0298    0.0593    0.0500 C.3       1 <0>         0.0708
      3 H1          0.4585   -0.2381   -0.8780 H         1 <0>         0.0467
      4 C3         -1.4631   -0.4768    0.0666 C.3       1 <0>        -0.1073
      5 C4         -1.4318   -2.0058   -0.0093 C.3       1 <0>        -0.1166
      6 C5         -0.6117   -2.5506    1.1633 C.3       1 <0>        -0.0997
      7 H2         -1.0916   -2.2747    2.1023 H         1 <0>         0.1074
      8 C6          0.7969   -1.9544    1.1149 C.3       1 <0>         0.0523
      9 N1          0.7128   -0.4903    1.1915 N.3       1 <0>        -0.5037
     10 C7          2.0504    0.1094    1.2873 C.3       1 <0>         0.0783
     11 H3          1.9511    1.1921    1.2108 H         1 <0>         0.1137
     12 C8          2.9022   -0.3929    0.1000 C.3       1 <0>        -0.6140
     13 S1          4.5606   -0.5622    0.8928 S.o2      1 <0>         2.3676
     14 O1          5.2412   -1.6741    0.3273 O.2       1 <0>        -0.9323
     15 O2          5.1958    0.7083    0.9312 O.2       1 <0>        -0.9296
     16 C9          3.9696   -1.0034    2.5850 C.3       1 <0>        -0.5715
     17 C10         2.6378   -0.2292    2.6492 C.3       1 <0>         0.0970
     18 H4          2.8041    0.6986    3.1967 H         1 <0>         0.0655
     19 N2          1.6622   -1.0375    3.3927 N.3       1 <0>        -0.8220
     20 C11        -0.5272   -4.0519    1.0637 C.2       1 <0>         0.5219
     21 O3          0.5538   -4.5933    0.9669 O.2       1 <0>        -0.5397
     22 N3         -1.6528   -4.7930    1.0821 N.am      1 <0>        -0.8568
     23 H5          0.9654    1.9681    0.1338 H         1 <0>         0.0581
     24 H6         -0.6063    1.9942   -0.7014 H         1 <0>         0.0629
     25 H7         -0.5437    1.8836    1.0740 H         1 <0>         0.0663
     26 H8         -1.9564   -0.1682    0.9884 H         1 <0>         0.0756
     27 H9         -2.0096   -0.0810   -0.7894 H         1 <0>         0.0718
     28 H10        -2.4488   -2.3941    0.0459 H         1 <0>         0.0693
     29 H11        -0.9736   -2.3145   -0.9489 H         1 <0>         0.0647
     30 H12         1.3791   -2.3292    1.9568 H         1 <0>         0.1352
     31 H13         1.2812   -2.2422    0.1818 H         1 <0>         0.0364
     32 H14         2.5408   -1.3554   -0.2619 H         1 <0>         0.1481
     33 H15         2.9256    0.3425   -0.7042 H         1 <0>         0.1415
     34 H16         3.8019   -2.0767    2.6740 H         1 <0>         0.1504
     35 H17         4.6657   -0.6528    3.3469 H         1 <0>         0.1405
     36 H18         2.0165   -1.2831    4.3050 H         1 <0>         0.3412
     37 H19         0.7768   -0.5592    3.4655 H         1 <0>         0.3611
     38 H20        -2.5173   -4.3599    1.1595 H         1 <0>         0.4008
     39 H21        -1.5983   -5.7593    1.0179 H         1 <0>         0.4016
@<TRIPOS>BOND
     1    1    2 1
     2    1   23 1
     3    1   24 1
     4    1   25 1
     5    2    3 1
     6    2    9 1
     7    2    4 1
     8    4    5 1
     9    4   26 1
    10    4   27 1
    11    5    6 1
    12    5   28 1
    13    5   29 1
    14    6    7 1
    15    6    8 1
    16    6   20 1
    17    8    9 1
    18    8   30 1
    19    8   31 1
    20    9   10 1
    21   10   11 1
    22   10   17 1
    23   10   12 1
    24   12   13 1
    25   12   32 1
    26   12   33 1
    27   13   14 2
    28   13   15 2
    29   13   16 1
    30   16   17 1
    31   16   34 1
    32   16   35 1
    33   17   18 1
    34   17   19 1
    35   19   36 1
    36   19   37 1
    37   20   21 2
    38   20   22 am
    39   22   38 1
    40   22   39 1
@<TRIPOS>MOLECULE
ZINC03155080
   34    35     0     0     0
SMALL
USER_CHARGES
N-(4-methoxyphenyl)-4-methyl-2,6-dioxo-3H-pyrimidine-5-sulfonamide
@<TRIPOS>ATOM
      1 C1         -0.9255   -0.0517    1.8675 C.3       1 <0>        -0.1661
      2 C2          0.1877    0.2851    0.9091 C.2       1 <0>         0.3477
      3 C3          0.0251    1.2697   -0.0003 C.2       1 <0>        -0.8663
      4 C4          1.0852    1.5674   -0.8902 C.2       1 <0>         0.5832
      5 O1          0.9619    2.4508   -1.7193 O.2       1 <0>        -0.4648
      6 N1          2.2321    0.8627   -0.8122 N.am      1 <0>        -0.6591
      7 H1          2.9851    1.0662   -1.4379 H         1 <0>         0.4449
      8 C5          2.3675   -0.1135    0.1045 C.2       1 <0>         0.7051
      9 O2          3.4077   -0.7403    0.1634 O.2       1 <0>        -0.5209
     10 N2          1.3679   -0.4058    0.9562 N.am      1 <0>        -0.6302
     11 H2          1.4885   -1.1348    1.6300 H         1 <0>         0.4493
     12 S1         -1.4889    2.1673   -0.0833 S.o2      1 <0>         2.7138
     13 O3         -1.2980    3.1979   -1.0429 O.2       1 <0>        -0.9047
     14 O4         -2.5268    1.2034   -0.1968 O.2       1 <0>        -0.9447
     15 N3         -1.6954    2.9153    1.3797 N.pl3     1 <0>        -1.0577
     16 C6         -0.8203    3.9332    1.7748 C.ar      1 <0>         0.1191
     17 C7          0.5509    3.7628    1.6375 C.ar      1 <0>        -0.1154
     18 C8          1.4136    4.7703    2.0224 C.ar      1 <0>        -0.1783
     19 C9          0.9112    5.9474    2.5570 C.ar      1 <0>         0.1222
     20 C10        -0.4580    6.1164    2.6995 C.ar      1 <0>        -0.1254
     21 C11        -1.3224    5.1122    2.3098 C.ar      1 <0>        -0.0843
     22 O5          1.7617    6.9366    2.9414 O.3       1 <0>        -0.3143
     23 C12         3.1592    6.6951    2.7662 C.3       1 <0>         0.0248
     24 H3         -1.5181   -0.8719    1.4623 H         1 <0>         0.1336
     25 H4         -0.5016   -0.3491    2.8267 H         1 <0>         0.1129
     26 H5         -1.5619    0.8222    2.0068 H         1 <0>         0.0969
     27 H6         -2.4230    2.6477    1.9627 H         1 <0>         0.4258
     28 H7          0.9425    2.8442    1.2260 H         1 <0>         0.1216
     29 H8          2.4799    4.6397    1.9114 H         1 <0>         0.1333
     30 H9         -0.8484    7.0334    3.1156 H         1 <0>         0.1406
     31 H10        -2.3886    5.2440    2.4208 H         1 <0>         0.1409
     32 H11         3.4513    5.8173    3.3426 H         1 <0>         0.0557
     33 H12         3.3686    6.5226    1.7105 H         1 <0>         0.0576
     34 H13         3.7238    7.5611    3.1118 H         1 <0>         0.1032
@<TRIPOS>BOND
     1    1    2 1
     2    1   24 1
     3    1   25 1
     4    1   26 1
     5    2   10 1
     6    2    3 2
     7    3    4 1
     8    3   12 1
     9    4    5 2
    10    4    6 am
    11    6    7 1
    12    6    8 am
    13    8    9 2
    14    8   10 am
    15   10   11 1
    16   12   13 2
    17   12   14 2
    18   12   15 1
    19   15   16 1
    20   15   27 1
    21   16   21 ar
    22   16   17 ar
    23   17   18 ar
    24   17   28 1
    25   18   19 ar
    26   18   29 1
    27   19   20 ar
    28   19   22 1
    29   20   21 ar
    30   20   30 1
    31   21   31 1
    32   22   23 1
    33   23   32 1
    34   23   33 1
    35   23   34 1
@<TRIPOS>MOLECULE
ZINC37791502
   35    36     0     0     0
SMALL
USER_CHARGES

@<TRIPOS>ATOM
      1 C1         -1.1152    1.1131   -0.4123 C.3       1 <0>         0.0526
      2 O1         -0.5056   -0.1588   -0.1826 O.3       1 <0>        -0.3613
      3 C2          0.0800   -0.7555   -1.2381 C.2       1 <0>         0.6488
      4 O2          0.0735   -0.2113   -2.3245 O.2       1 <0>        -0.5501
      5 N1          0.6733   -1.9565   -1.0896 N.am      1 <0>        -0.6484
      6 C3          1.1965   -2.6212   -2.2045 C.ar      1 <0>         0.1726
      7 C4          1.7820   -1.8961   -3.2350 C.ar      1 <0>        -0.1273
      8 C5          2.2986   -2.5513   -4.3360 C.ar      1 <0>        -0.0809
      9 C6          2.2347   -3.9291   -4.4166 C.ar      1 <0>        -0.1473
     10 C7          1.6501   -4.6601   -3.3898 C.ar      1 <0>         0.1557
     11 C8          1.1361   -4.0050   -2.2793 C.ar      1 <0>        -0.1402
     12 N2          1.5849   -6.0542   -3.4725 N.am      1 <0>        -0.6511
     13 C9          0.5198   -6.7099   -2.9703 C.2       1 <0>         0.5803
     14 O3         -0.3442   -6.0979   -2.3708 O.2       1 <0>        -0.4971
     15 C10         0.4023   -8.1614   -3.1464 C.2       1 <0>         0.0800
     16 N3          1.3310   -8.8059   -3.7824 N.2       1 <0>        -0.2003
     17 N4          1.2516  -10.1894   -3.9714 N.am      1 <0>        -0.5564
     18 C11         0.0704  -10.8271   -3.8533 C.2       1 <0>         0.4983
     19 O4          0.0066  -12.0260   -4.0231 O.2       1 <0>        -0.5079
     20 C12        -1.1714  -10.0446   -3.5087 C.3       1 <0>        -0.1442
     21 C13        -0.7917   -8.8836   -2.5813 C.3       1 <0>        -0.1071
     22 H1         -0.3631    1.8177   -0.7672 H         1 <0>         0.0640
     23 H2         -1.8992    1.0100   -1.1626 H         1 <0>         0.0640
     24 H3         -1.5484    1.4816    0.5175 H         1 <0>         0.1074
     25 H4          0.7377   -2.3602   -0.2099 H         1 <0>         0.4194
     26 H5          1.8329   -0.8189   -3.1753 H         1 <0>         0.1434
     27 H6          2.7532   -1.9852   -5.1355 H         1 <0>         0.1350
     28 H7          2.6392   -4.4384   -5.2788 H         1 <0>         0.1314
     29 H8          0.6854   -4.5712   -1.4776 H         1 <0>         0.1463
     30 H9          2.3061   -6.5495   -3.8912 H         1 <0>         0.4228
     31 H10         2.0515  -10.6929   -4.1893 H         1 <0>         0.4366
     32 H11        -1.6205   -9.6538   -4.4217 H         1 <0>         0.1120
     33 H12        -1.8832  -10.6959   -3.0017 H         1 <0>         0.1238
     34 H13        -0.5474   -9.2696   -1.5916 H         1 <0>         0.1060
     35 H14        -1.6308   -8.1923   -2.5039 H         1 <0>         0.1194
@<TRIPOS>BOND
     1    1    2 1
     2    1   22 1
     3    1   23 1
     4    1   24 1
     5    2    3 1
     6    3    4 2
     7    3    5 am
     8    5    6 1
     9    5   25 1
    10    6   11 ar
    11    6    7 ar
    12    7    8 ar
    13    7   26 1
    14    8    9 ar
    15    8   27 1
    16    9   10 ar
    17    9   28 1
    18   10   11 ar
    19   10   12 1
    20   11   29 1
    21   12   13 am
    22   12   30 1
    23   13   14 2
    24   13   15 1
    25   15   21 1
    26   15   16 2
    27   16   17 1
    28   17   18 am
    29   17   31 1
    30   18   19 2
    31   18   20 1
    32   20   21 1
    33   20   32 1
    34   20   33 1
    35   21   34 1
    36   21   35 1
@<TRIPOS>MOLECULE
ZINC49125043
   33    34     0     0     0
SMALL
USER_CHARGES

@<TRIPOS>ATOM
      1 C1         -0.0184    1.5028    0.0103 C.3       1 <0>        -0.1115
      2 C2          0.0021   -0.0041    0.0020 C.2       1 <0>         0.1754
      3 C3          0.0080   -0.8177   -1.1355 C.2       1 <0>        -0.8092
      4 C4          0.0282   -2.1083   -0.7242 C.2       1 <0>         0.2321
      5 N1          0.0348   -2.1091    0.6256 N.pl3     1 <0>        -0.3414
      6 N2          0.0231   -0.7767    1.0577 N.2       1 <0>        -0.2669
      7 C5          0.0550   -3.2942    1.4866 C.3       1 <0>         0.0801
      8 Cl1         0.0425   -3.5094   -1.7491 Cl        1 <0>         0.0449
      9 S1         -0.0089   -0.2625   -2.8077 S.o2      1 <0>         2.7232
     10 O1         -0.5483   -1.3243   -3.5828 O.2       1 <0>        -0.9266
     11 O2         -0.5787    1.0392   -2.7976 O.2       1 <0>        -0.9317
     12 N3          1.5682   -0.0851   -3.2806 N.pl3     1 <0>        -0.9138
     13 N4          2.4331   -1.1871   -3.2628 N.am      1 <0>        -0.5157
     14 C6          3.1001   -1.5383   -4.3801 C.2       1 <0>         0.7242
     15 O3          3.8507   -2.4947   -4.3646 O.2       1 <0>        -0.5674
     16 N5          2.9352   -0.8293   -5.5143 N.am      1 <0>        -0.7075
     17 C7          3.6603   -1.2110   -6.7287 C.3       1 <0>         0.0931
     18 C8          4.2990   -0.0905   -7.5518 C.3       1 <0>        -0.1930
     19 C9          3.0507   -0.8060   -8.0723 C.3       1 <0>        -0.1885
     20 H1          1.0042    1.8801    0.0026 H         1 <0>         0.0921
     21 H2         -0.5455    1.8639   -0.8728 H         1 <0>         0.1145
     22 H3         -0.5286    1.8543    0.9071 H         1 <0>         0.0896
     23 H4          1.0875   -3.5743    1.6951 H         1 <0>         0.0935
     24 H5         -0.4573   -3.0720    2.4227 H         1 <0>         0.1066
     25 H6         -0.4503   -4.1181    0.9826 H         1 <0>         0.0987
     26 H7          1.8932    0.7819   -3.5699 H         1 <0>         0.4247
     27 H8          2.5518   -1.6974   -2.4465 H         1 <0>         0.4297
     28 H9          2.3364   -0.0663   -5.5266 H         1 <0>         0.3997
     29 H10         4.1868   -2.1643   -6.6819 H         1 <0>         0.1424
     30 H11         4.1796    0.9306   -7.1898 H         1 <0>         0.0975
     31 H12         5.2459   -0.3065   -8.0466 H         1 <0>         0.1050
     32 H13         3.1764   -1.4926   -8.9094 H         1 <0>         0.1069
     33 H14         2.1101   -0.2555   -8.0527 H         1 <0>         0.0990
@<TRIPOS>BOND
     1    1    2 1
     2    1   20 1
     3    1   21 1
     4    1   22 1
     5    2    6 2
     6    2    3 1
     7    3    4 2
     8    3    9 1
     9    4    5 1
    10    4    8 1
    11    5    6 1
    12    5    7 1
    13    7   23 1
    14    7   24 1
    15    7   25 1
    16    9   10 2
    17    9   11 2
    18    9   12 1
    19   12   13 1
    20   12   26 1
    21   13   14 am
    22   13   27 1
    23   14   15 2
    24   14   16 am
    25   16   17 1
    26   16   28 1
    27   17   19 1
    28   17   18 1
    29   17   29 1
    30   18   19 1
    31   18   30 1
    32   18   31 1
    33   19   32 1
    34   19   33 1
@<TRIPOS>MOLECULE
ZINC55110793
   45    47     0     0     0
SMALL
USER_CHARGES

@<TRIPOS>ATOM
      1 C1         -0.0187    1.5258    0.0104 C.3       1 <0>        -0.1492
      2 C2          0.0021   -0.0041    0.0020 C.3       1 <0>        -0.0978
      3 C3          0.7161   -0.4971   -1.2581 C.3       1 <0>        -0.1120
      4 C4          0.7270   -2.0279   -1.2710 C.3       1 <0>        -0.1166
      5 C5          1.4420   -2.5429   -0.0266 C.3       1 <0>         0.1394
      6 C6          0.7531   -2.0414    1.2379 C.3       1 <0>        -0.1158
      7 C7          0.7421   -0.5105    1.2417 C.3       1 <0>        -0.1124
      8 C8          1.4950   -4.0532   -0.0352 C.2       1 <0>         0.5330
      9 O1          0.5565   -4.8206   -0.0300 O.2       1 <0>        -0.4445
     10 N1          2.8070   -4.3675   -0.0505 N.am      1 <0>        -0.3778
     11 C9          3.5764   -3.2720   -0.0526 C.2       1 <0>         0.7072
     12 O2          4.7914   -3.2995   -0.0650 O.2       1 <0>        -0.5228
     13 N2          2.8530   -2.1362   -0.0391 N.am      1 <0>        -0.7061
     14 N3          3.3027   -5.6778   -0.0619 N.am      1 <0>        -0.5006
     15 C10         3.8118   -6.1959   -1.1972 C.2       1 <0>         0.5200
     16 O3          3.8408   -5.5277   -2.2090 O.2       1 <0>        -0.5087
     17 C11         4.3449   -7.6054   -1.2095 C.3       1 <0>         0.1160
     18 N4          4.8380   -7.9293   -2.5504 N.am      1 <0>        -0.7180
     19 C12         5.3639   -9.1449   -2.7996 C.2       1 <0>         0.5824
     20 O4          5.4292   -9.9731   -1.9111 O.2       1 <0>        -0.5347
     21 C13         5.8593   -9.4704   -4.1469 C.2       1 <0>        -0.1880
     22 C14         6.4235  -10.7628   -4.4523 C.2       1 <0>        -0.1030
     23 C15         6.8400  -10.9344   -5.7230 C.2       1 <0>        -0.2113
     24 S1          6.4705   -9.3685   -6.4836 S.3       1 <0>         0.1982
     25 C16         5.8008   -8.5579   -5.1761 C.2       1 <0>        -0.2094
     26 H1          1.0039    1.9031    0.0027 H         1 <0>         0.0557
     27 H2         -0.5459    1.8868   -0.8726 H         1 <0>         0.0576
     28 H3         -0.5289    1.8773    0.9072 H         1 <0>         0.0576
     29 H4         -1.0206   -0.3811    0.0105 H         1 <0>         0.0778
     30 H5          0.1917   -0.1299   -2.1403 H         1 <0>         0.0783
     31 H6          1.7411   -0.1262   -1.2638 H         1 <0>         0.0666
     32 H7         -0.2981   -2.3984   -1.2803 H         1 <0>         0.0933
     33 H8          1.2483   -2.3799   -2.1612 H         1 <0>         0.0788
     34 H9         -0.2716   -2.4120    1.2646 H         1 <0>         0.0940
     35 H10         1.2928   -2.4028    2.1132 H         1 <0>         0.0781
     36 H11         1.7670   -0.1396    1.2300 H         1 <0>         0.0668
     37 H12         0.2362   -0.1528    2.1384 H         1 <0>         0.0784
     38 H13         3.1961   -1.2289   -0.0381 H         1 <0>         0.4445
     39 H14         3.2795   -6.2122    0.7473 H         1 <0>         0.4323
     40 H15         5.1607   -7.6915   -0.4918 H         1 <0>         0.1135
     41 H16         3.5479   -8.2977   -0.9384 H         1 <0>         0.1132
     42 H17         4.7860   -7.2689   -3.2590 H         1 <0>         0.4113
     43 H18         6.5072  -11.5430   -3.7102 H         1 <0>         0.1527
     44 H19         7.2887  -11.8091   -6.1703 H         1 <0>         0.1924
     45 H20         5.4140   -7.5499   -5.1479 H         1 <0>         0.1900
@<TRIPOS>BOND
     1    1    2 1
     2    1   26 1
     3    1   27 1
     4    1   28 1
     5    2    7 1
     6    2    3 1
     7    2   29 1
     8    3    4 1
     9    3   30 1
    10    3   31 1
    11    4    5 1
    12    4   32 1
    13    4   33 1
    14    5   13 1
    15    5    6 1
    16    5    8 1
    17    6    7 1
    18    6   34 1
    19    6   35 1
    20    7   36 1
    21    7   37 1
    22    8    9 2
    23    8   10 am
    24   10   11 am
    25   10   14 1
    26   11   12 2
    27   11   13 am
    28   13   38 1
    29   14   15 am
    30   14   39 1
    31   15   16 2
    32   15   17 1
    33   17   18 1
    34   17   40 1
    35   17   41 1
    36   18   19 am
    37   18   42 1
    38   19   20 2
    39   19   21 1
    40   21   25 2
    41   21   22 1
    42   22   23 2
    43   22   43 1
    44   23   24 1
    45   23   44 1
    46   24   25 1
    47   25   45 1
@<TRIPOS>MOLECULE
ZINC60862332
   28    29     0     0     0
SMALL
USER_CHARGES

@<TRIPOS>ATOM
      1 C1         -0.0208    1.3554    0.3465 C.ar      1 <0>        -0.0978
      2 C2          1.1646    2.0465    0.5045 C.ar      1 <0>        -0.0706
      3 C3          2.3734    1.3792    0.4133 C.ar      1 <0>        -0.0031
      4 C4          2.3983    0.0179    0.1641 C.ar      1 <0>        -0.0112
      5 C5          1.2164   -0.6780    0.0054 C.ar      1 <0>        -0.0697
      6 C6          0.0013   -0.0106    0.0964 C.ar      1 <0>         0.1398
      7 N1         -1.1970   -0.7128   -0.0634 N.pl3     1 <0>        -0.5963
      8 C7         -2.3766   -0.0633    0.0253 C.2       1 <0>         0.3298
      9 C8         -3.5624   -0.7676   -0.0710 C.2       1 <0>        -0.4022
     10 C9         -3.5836   -2.2414   -0.0760 C.2       1 <0>         0.5727
     11 O1         -2.5520   -2.8814    0.0050 O.2       1 <0>        -0.5031
     12 N2         -4.7777   -2.8614   -0.1724 N.am      1 <0>        -0.6129
     13 C10        -5.9217   -2.1687   -0.2618 C.2       1 <0>         0.5465
     14 S1         -7.3902   -3.0407   -0.3800 S.2       1 <0>        -0.5029
     15 N3         -5.9771   -0.8294   -0.2633 N.am      1 <0>        -0.6134
     16 C11        -4.8613   -0.0775   -0.1671 C.2       1 <0>         0.5783
     17 O2         -4.9250    1.1376   -0.1641 O.2       1 <0>        -0.4839
     18 N4          3.6933   -0.6924    0.0672 N.pl3     1 <0>         0.0272
     19 O3          3.7158   -1.8815   -0.1504 O.2       1 <0>        -0.1488
     20 O4          4.7286   -0.0836    0.2057 O.3       1 <0>        -0.1198
     21 Cl1         3.8614    2.2512    0.6111 Cl        1 <0>         0.0096
     22 H1         -0.9641    1.8759    0.4219 H         1 <0>         0.1621
     23 H2          1.1480    3.1087    0.6989 H         1 <0>         0.1709
     24 H3          1.2365   -1.7400   -0.1897 H         1 <0>         0.1719
     25 H4         -1.1806   -1.6668   -0.2380 H         1 <0>         0.4382
     26 H5         -2.3943    1.0066    0.1716 H         1 <0>         0.1900
     27 H6         -4.8092   -3.8309   -0.1773 H         1 <0>         0.4490
     28 H7         -6.8396   -0.3909   -0.3312 H         1 <0>         0.4497
@<TRIPOS>BOND
     1    1    6 ar
     2    1    2 ar
     3    1   22 1
     4    2    3 ar
     5    2   23 1
     6    3    4 ar
     7    3   21 1
     8    4    5 ar
     9    4   18 1
    10    5    6 ar
    11    5   24 1
    12    6    7 1
    13    7    8 1
    14    7   25 1
    15    8    9 2
    16    8   26 1
    17    9   16 1
    18    9   10 1
    19   10   11 2
    20   10   12 am
    21   12   13 1
    22   12   27 1
    23   13   14 2
    24   13   15 1
    25   15   16 am
    26   15   28 1
    27   16   17 2
    28   18   19 2
    29   18   20 1
@<TRIPOS>MOLECULE
ZINC67583735
   42    43     0     0     0
SMALL
USER_CHARGES

@<TRIPOS>ATOM
      1 C1          0.3996    1.8902    0.7257 C.3       1 <0>        -0.6751
      2 S1          0.2997    0.0868    0.5577 S.o2      1 <0>         2.6110
      3 O1          1.1935   -0.5398    1.4675 O.2       1 <0>        -0.9528
      4 O2         -1.0587   -0.3230    0.4787 O.2       1 <0>        -0.9505
      5 N1          0.9264   -0.2365   -0.9406 N.pl3     1 <0>        -0.9950
      6 C2          0.0576   -0.2656   -2.1251 C.3       1 <0>         0.1167
      7 C3          0.6350    0.6795   -3.1835 C.3       1 <0>        -0.1336
      8 C4          2.0908    0.2983   -3.4622 C.3       1 <0>        -0.1297
      9 C5          2.9135    0.4481   -2.1805 C.3       1 <0>         0.1490
     10 H1          2.8482    1.4762   -1.8244 H         1 <0>         0.0938
     11 C6          2.3629   -0.4936   -1.1116 C.3       1 <0>         0.1151
     12 N2          4.3130    0.1140   -2.4560 N.am      1 <0>        -0.7364
     13 C7          5.1461    1.0532   -2.9464 C.2       1 <0>         0.7150
     14 O3          4.7360    2.1778   -3.1603 O.2       1 <0>        -0.5641
     15 N3          6.4336    0.7458   -3.1999 N.am      1 <0>        -0.6747
     16 C8          7.2729    1.6895   -3.8089 C.2       1 <0>         0.0596
     17 C9          8.4174    2.1033   -3.1843 C.2       1 <0>        -0.0086
     18 C10         9.2391    3.0477   -3.8158 C.2       1 <0>        -0.2833
     19 C11         8.8973    3.5393   -5.0286 C.2       1 <0>         0.2042
     20 N4          7.7600    3.1298   -5.6509 N.am      1 <0>        -0.5968
     21 H2          7.5316    3.4938   -6.5205 H         1 <0>         0.4285
     22 C12         6.9499    2.2198   -5.0768 C.2       1 <0>         0.5234
     23 O4          5.9350    1.8576   -5.6500 O.2       1 <0>        -0.5053
     24 C13        10.5036    3.5157   -3.1427 C.3       1 <0>         0.5303
     25 F1         11.1488    4.4499   -3.9601 F         1 <0>        -0.1771
     26 F2         10.1868    4.1093   -1.9161 F         1 <0>        -0.1716
     27 F3         11.3492    2.4222   -2.9269 F         1 <0>        -0.1726
     28 H3          1.4401    2.2053    0.6473 H         1 <0>         0.1276
     29 H4         -0.1834    2.3616   -0.0655 H         1 <0>         0.1287
     30 H5          0.0021    2.1873    1.6962 H         1 <0>         0.1298
     31 H6          0.0170   -1.2793   -2.5236 H         1 <0>         0.0784
     32 H7         -0.9452    0.0619   -1.8508 H         1 <0>         0.0952
     33 H8          0.0545    0.5950   -4.1022 H         1 <0>         0.0826
     34 H9          0.5912    1.7054   -2.8179 H         1 <0>         0.0697
     35 H10         2.1363   -0.7356   -3.8042 H         1 <0>         0.0681
     36 H11         2.4965    0.9537   -4.2329 H         1 <0>         0.0760
     37 H12         2.8806   -0.3164   -0.1689 H         1 <0>         0.0986
     38 H13         2.5144   -1.5263   -1.4256 H         1 <0>         0.0819
     39 H14         4.6401   -0.7831   -2.2854 H         1 <0>         0.3993
     40 H15         6.7797   -0.1283   -2.9609 H         1 <0>         0.4100
     41 H16         8.6848    1.7073   -2.2158 H         1 <0>         0.1496
     42 H17         9.5355    4.2665   -5.5085 H         1 <0>         0.1850
@<TRIPOS>BOND
     1    1    2 1
     2    1   28 1
     3    1   29 1
     4    1   30 1
     5    2    3 2
     6    2    4 2
     7    2    5 1
     8    5   11 1
     9    5    6 1
    10    6    7 1
    11    6   31 1
    12    6   32 1
    13    7    8 1
    14    7   33 1
    15    7   34 1
    16    8    9 1
    17    8   35 1
    18    8   36 1
    19    9   10 1
    20    9   11 1
    21    9   12 1
    22   11   37 1
    23   11   38 1
    24   12   13 am
    25   12   39 1
    26   13   14 2
    27   13   15 am
    28   15   16 1
    29   15   40 1
    30   16   22 1
    31   16   17 2
    32   17   18 1
    33   17   41 1
    34   18   19 2
    35   18   24 1
    36   19   20 1
    37   19   42 1
    38   20   21 1
    39   20   22 am
    40   22   23 2
    41   24   25 1
    42   24   26 1
    43   24   27 1
@<TRIPOS>MOLECULE
ZINC03516630
   41    42     0     0     0
SMALL
USER_CHARGES
2-(1,3-dioxo-2,4-diazaspiro[4.6]undec-2-yl)-N-(methylcarbamoyl)acetamide
@<TRIPOS>ATOM
      1 C1         -4.6319    4.3746    4.6139 C.3       1 <0>         0.1020
      2 N1         -4.2310    4.1134    3.2293 N.am      1 <0>        -0.7402
      3 C2         -3.1258    3.3855    2.9736 C.2       1 <0>         0.6923
      4 O1         -2.4619    2.9459    3.8918 O.2       1 <0>        -0.5260
      5 N2         -2.7570    3.1452    1.6998 N.am      1 <0>        -0.6878
      6 C3         -1.6518    2.4174    1.4441 C.2       1 <0>         0.5047
      7 O2         -0.9895    1.9788    2.3600 O.2       1 <0>        -0.4519
      8 C4         -1.2394    2.1487    0.0198 C.3       1 <0>         0.1026
      9 N3         -0.0162    1.3425    0.0094 N.am      1 <0>        -0.5642
     10 C5          0.0021   -0.0041    0.0020 C.2       1 <0>         0.5345
     11 O3         -0.9551   -0.7481    0.0092 O.2       1 <0>        -0.4565
     12 C6          1.4688   -0.3987   -0.0171 C.3       1 <0>         0.1411
     13 C7          1.7575   -1.0866   -1.3705 C.3       1 <0>        -0.1131
     14 C8          3.2240   -0.9594   -1.6749 C.3       1 <0>        -0.1202
     15 C9          4.0366   -2.1824   -1.2061 C.3       1 <0>        -0.1198
     16 C10         3.6050   -2.6899    0.1827 C.3       1 <0>        -0.1253
     17 C11         3.3437   -1.5640    1.1469 C.3       1 <0>        -0.1089
     18 C12         1.8387   -1.2362    1.1170 C.3       1 <0>        -0.1240
     19 N4          2.1690    0.9017   -0.0140 N.am      1 <0>        -0.7150
     20 C13         1.2198    1.8531    0.0004 C.2       1 <0>         0.7088
     21 O4          1.4582    3.0449    0.0042 O.2       1 <0>        -0.5386
     22 H1         -3.8363    4.9150    5.1268 H         1 <0>         0.0628
     23 H2         -5.5420    4.9744    4.6217 H         1 <0>         0.0819
     24 H3         -4.8158    3.4288    5.1236 H         1 <0>         0.0627
     25 H4         -4.7609    4.4642    2.4965 H         1 <0>         0.4012
     26 H5         -3.2869    3.4961    0.9670 H         1 <0>         0.4122
     27 H6         -1.0555    3.0945   -0.4898 H         1 <0>         0.1368
     28 H7         -2.0350    1.6083   -0.4931 H         1 <0>         0.1341
     29 H8          1.4870   -2.1407   -1.3097 H         1 <0>         0.0925
     30 H9          1.1778   -0.6033   -2.1570 H         1 <0>         0.0730
     31 H10         3.6105   -0.0689   -1.1792 H         1 <0>         0.0641
     32 H11         3.3513   -0.8438   -2.7513 H         1 <0>         0.0711
     33 H12         5.0914   -1.9102   -1.1686 H         1 <0>         0.0637
     34 H13         3.9073   -2.9869   -1.9301 H         1 <0>         0.0638
     35 H14         4.3927   -3.3256    0.5870 H         1 <0>         0.0655
     36 H15         2.6954   -3.2806    0.0744 H         1 <0>         0.0657
     37 H16         3.9160   -0.6857    0.8485 H         1 <0>         0.0662
     38 H17         3.6331   -1.8652    2.1537 H         1 <0>         0.0761
     39 H18         1.5728   -0.7184    2.0385 H         1 <0>         0.0771
     40 H19         1.2777   -2.1692    1.0635 H         1 <0>         0.0939
     41 H20         3.1288    1.0421   -0.0209 H         1 <0>         0.4408
@<TRIPOS>BOND
     1    1    2 1
     2    1   22 1
     3    1   23 1
     4    1   24 1
     5    2    3 am
     6    2   25 1
     7    3    4 2
     8    3    5 am
     9    5    6 am
    10    5   26 1
    11    6    7 2
    12    6    8 1
    13    8    9 1
    14    8   27 1
    15    8   28 1
    16    9   20 am
    17    9   10 am
    18   10   11 2
    19   10   12 1
    20   12   18 1
    21   12   13 1
    22   12   19 1
    23   13   14 1
    24   13   29 1
    25   13   30 1
    26   14   15 1
    27   14   31 1
    28   14   32 1
    29   15   16 1
    30   15   33 1
    31   15   34 1
    32   16   17 1
    33   16   35 1
    34   16   36 1
    35   17   18 1
    36   17   37 1
    37   17   38 1
    38   18   39 1
    39   18   40 1
    40   19   20 am
    41   19   41 1
    42   20   21 2
@<TRIPOS>MOLECULE
ZINC11460153
   38    39     0     0     0
SMALL
USER_CHARGES

@<TRIPOS>ATOM
      1 C1         -0.0239    1.5432   -0.0142 C.3       1 <0>        -0.1706
      2 C2         -0.0044    0.0134    0.0020 C.3       1 <0>         0.0654
      3 H1          0.5108   -0.3528   -0.8860 H         1 <0>         0.1210
      4 C3          0.7169   -0.4667    1.2350 C.2       1 <0>         0.5224
      5 O1          0.1157   -1.0858    2.0865 O.2       1 <0>        -0.4397
      6 N1          2.0303   -0.2078    1.3912 N.am      1 <0>        -0.6863
      7 C4          2.6753   -0.6371    2.4939 C.2       1 <0>         0.6933
      8 O2          2.0726   -1.2578    3.3475 O.2       1 <0>        -0.5242
      9 N2          3.9887   -0.3782    2.6501 N.am      1 <0>        -0.7396
     10 C5          4.6899   -0.8450    3.8488 C.3       1 <0>         0.1016
     11 O3         -1.3454   -0.4800    0.0122 O.3       1 <0>        -0.3112
     12 C6         -1.9236   -0.7039   -1.1833 C.2       1 <0>         0.5151
     13 O4         -1.3068   -0.4864   -2.2061 O.2       1 <0>        -0.4788
     14 C7         -3.3130   -1.2158   -1.2504 C.2       1 <0>        -0.0298
     15 C8         -3.9566   -1.3335   -2.4492 C.2       1 <0>        -0.1118
     16 C9         -5.3265   -1.8415   -2.4827 C.2       1 <0>         0.5355
     17 O5         -5.9014   -1.9469   -3.5515 O.2       1 <0>        -0.5156
     18 N3         -5.9616   -2.1948   -1.3517 N.am      1 <0>        -0.6247
     19 H2         -6.8707   -2.5294   -1.4018 H         1 <0>         0.4208
     20 C10        -5.3469   -2.0915   -0.1222 C.ar      1 <0>         0.1824
     21 C11        -4.0275   -1.6142   -0.0277 C.ar      1 <0>        -0.1193
     22 C12        -3.4101   -1.5180    1.2226 C.ar      1 <0>        -0.0565
     23 C13        -4.0899   -1.8929    2.3469 C.ar      1 <0>        -0.1415
     24 C14        -5.3905   -2.3697    2.2584 C.ar      1 <0>        -0.0593
     25 C15        -6.0223   -2.4632    1.0374 C.ar      1 <0>        -0.1641
     26 H3          0.9990    1.9196   -0.0219 H         1 <0>         0.0846
     27 H4         -0.5456    1.8905   -0.9060 H         1 <0>         0.0833
     28 H5         -0.5391    1.9095    0.8738 H         1 <0>         0.0795
     29 H6          2.5113    0.2876    0.7099 H         1 <0>         0.4119
     30 H7          4.4698    0.1171    1.9688 H         1 <0>         0.4015
     31 H8          4.2281   -0.4068    4.7336 H         1 <0>         0.0637
     32 H9          4.6270   -1.9316    3.9065 H         1 <0>         0.0635
     33 H10         5.7362   -0.5437    3.7981 H         1 <0>         0.0823
     34 H11        -3.4573   -1.0531   -3.3650 H         1 <0>         0.1737
     35 H12        -2.3982   -1.1486    1.2998 H         1 <0>         0.1650
     36 H13        -3.6114   -1.8179    3.3122 H         1 <0>         0.1344
     37 H14        -5.9150   -2.6626    3.1558 H         1 <0>         0.1350
     38 H15        -7.0346   -2.8351    0.9788 H         1 <0>         0.1371
@<TRIPOS>BOND
     1    1    2 1
     2    1   26 1
     3    1   27 1
     4    1   28 1
     5    2    3 1
     6    2    4 1
     7    2   11 1
     8    4    5 2
     9    4    6 am
    10    6    7 am
    11    6   29 1
    12    7    8 2
    13    7    9 am
    14    9   10 1
    15    9   30 1
    16   10   31 1
    17   10   32 1
    18   10   33 1
    19   11   12 1
    20   12   13 2
    21   12   14 1
    22   14   21 1
    23   14   15 2
    24   15   16 1
    25   15   34 1
    26   16   17 2
    27   16   18 am
    28   18   19 1
    29   18   20 1
    30   20   25 ar
    31   20   21 ar
    32   21   22 ar
    33   22   23 ar
    34   22   35 1
    35   23   24 ar
    36   23   36 1
    37   24   25 ar
    38   24   37 1
    39   25   38 1
@<TRIPOS>MOLECULE
ZINC48782977
   37    38     0     0     0
SMALL
USER_CHARGES

@<TRIPOS>ATOM
      1 C1         -0.0187    1.5277    0.0104 C.3       1 <0>        -0.1377
      2 C2          1.4185    2.0534   -0.0005 C.3       1 <0>        -0.1171
      3 C3          2.1487    1.5734    1.2559 C.3       1 <0>        -0.1147
      4 H1          1.6189    1.9249    2.1413 H         1 <0>         0.0839
      5 C4          2.1940    0.0421    1.2616 C.3       1 <0>         0.1190
      6 N1          0.8243   -0.4720    1.1261 N.am      1 <0>        -0.6001
      7 C5          0.0021   -0.0041    0.0020 C.3       1 <0>         0.1003
      8 C6          0.3317   -1.3565    2.0158 C.2       1 <0>         0.5476
      9 O1          1.0207   -1.7354    2.9392 O.2       1 <0>        -0.5257
     10 C7         -1.0752   -1.8746    1.8632 C.3       1 <0>        -0.1515
     11 H2         -1.7972   -1.1633    1.4623 H         1 <0>         0.1481
     12 C8         -1.2486   -3.3468    1.4841 C.3       1 <0>        -0.1044
     13 C9         -1.5753   -2.8781    2.9043 C.3       1 <0>        -0.0647
     14 H3         -0.8867   -3.1635    3.6996 H         1 <0>         0.1861
     15 N2         -2.9881   -2.8096    3.2857 N.pl3     1 <0>         0.0145
     16 O2         -3.8480   -2.9654    2.4502 O.2       1 <0>        -0.1583
     17 O3         -3.2941   -2.5973    4.4359 O.3       1 <0>        -0.1454
     18 C10         3.5749    2.1272    1.2607 C.3       1 <0>         0.1442
     19 N3          3.5314    3.5873    1.3722 N.am      1 <0>        -0.7447
     20 C11         4.6777    4.2957    1.3960 C.2       1 <0>         0.7049
     21 O4          5.7479    3.7230    1.3249 O.2       1 <0>        -0.5919
     22 N4          4.6377    5.6390    1.4985 N.am      1 <0>        -0.8674
     23 H4         -0.5281    1.8797    0.9075 H         1 <0>         0.0694
     24 H5         -0.5451    1.8893   -0.8729 H         1 <0>         0.0837
     25 H6          1.9348    1.6808   -0.8852 H         1 <0>         0.0722
     26 H7          1.4064    3.1432   -0.0193 H         1 <0>         0.0697
     27 H8          2.8003   -0.3086    0.4265 H         1 <0>         0.0795
     28 H9          2.6242   -0.3072    2.2002 H         1 <0>         0.1005
     29 H10        -1.0139   -0.3839    0.1095 H         1 <0>         0.0877
     30 H11         0.4296   -0.3586   -0.9359 H         1 <0>         0.0804
     31 H12        -2.0850   -3.6040    0.8342 H         1 <0>         0.1421
     32 H13        -0.3451   -3.9405    1.3451 H         1 <0>         0.1356
     33 H14         4.1222    1.7142    2.1081 H         1 <0>         0.0721
     34 H15         4.0761    1.8483    0.3338 H         1 <0>         0.0723
     35 H16         2.6777    4.0442    1.4289 H         1 <0>         0.3965
     36 H17         3.7840    6.0959    1.5552 H         1 <0>         0.3969
     37 H18         5.4627    6.1489    1.5156 H         1 <0>         0.4166
@<TRIPOS>BOND
     1    1    7 1
     2    1    2 1
     3    1   23 1
     4    1   24 1
     5    2    3 1
     6    2   25 1
     7    2   26 1
     8    3    4 1
     9    3    5 1
    10    3   18 1
    11    5    6 1
    12    5   27 1
    13    5   28 1
    14    6    7 1
    15    6    8 am
    16    7   29 1
    17    7   30 1
    18    8    9 2
    19    8   10 1
    20   10   11 1
    21   10   13 1
    22   10   12 1
    23   12   13 1
    24   12   31 1
    25   12   32 1
    26   13   14 1
    27   13   15 1
    28   15   16 2
    29   15   17 1
    30   18   19 1
    31   18   33 1
    32   18   34 1
    33   19   20 am
    34   19   35 1
    35   20   21 2
    36   20   22 am
    37   22   36 1
    38   22   37 1
@<TRIPOS>MOLECULE
ZINC48722562
   29    31     0     0     0
SMALL
USER_CHARGES

@<TRIPOS>ATOM
      1 C1         -0.0167    1.3779    0.0096 C.ar      1 <0>        -0.0836
      2 C2          1.1696    2.0885    0.0021 C.ar      1 <0>        -0.1023
      3 C3          2.3803    1.4160   -0.0135 C.ar      1 <0>         0.0458
      4 C4          2.3992    0.0230   -0.0212 C.ar      1 <0>         0.0305
      5 C5          1.2071   -0.6821   -0.0137 C.ar      1 <0>        -0.0783
      6 C6          0.0021   -0.0041    0.0020 C.ar      1 <0>        -0.1087
      7 C7         -1.2936   -0.7736    0.0102 C.3       1 <0>         0.1667
      8 N1         -1.7266   -1.0156   -1.3682 N.am      1 <0>        -0.6975
      9 C8         -2.8682   -1.6909   -1.6073 C.2       1 <0>         0.6037
     10 O1         -3.5388   -2.0994   -0.6787 O.2       1 <0>        -0.5088
     11 C9         -3.3040   -1.9344   -2.9945 C.2       1 <0>         0.2478
     12 N2         -2.6718   -1.5537   -4.0706 N.2       1 <0>        -0.2259
     13 N3         -3.4117   -1.9792   -5.1822 N.am      1 <0>        -0.5331
     14 C10        -4.5032   -2.6246   -4.7228 C.2       1 <0>         0.6553
     15 O2         -5.3766   -3.1322   -5.4024 O.2       1 <0>        -0.5386
     16 N4         -4.4504   -2.6110   -3.3760 N.am      1 <0>        -0.6306
     17 O3          3.6984   -0.3954   -0.0364 O.3       1 <0>        -0.3066
     18 C11         4.4664    0.7501   -0.4501 C.3       1 <0>         0.2126
     19 O4          3.6676    1.8697   -0.0238 O.3       1 <0>        -0.3068
     20 H1         -0.9598    1.9039    0.0259 H         1 <0>         0.1434
     21 H2          1.1520    3.1683    0.0081 H         1 <0>         0.1406
     22 H3          1.2188   -1.7620   -0.0196 H         1 <0>         0.1398
     23 H4         -1.1467   -1.7271    0.5176 H         1 <0>         0.0905
     24 H5         -2.0555   -0.1967    0.5345 H         1 <0>         0.0930
     25 H6         -1.1917   -0.6897   -2.1089 H         1 <0>         0.4156
     26 H7          5.4365    0.7605    0.0468 H         1 <0>         0.1349
     27 H8          4.5896    0.7578   -1.5331 H         1 <0>         0.0880
     28 H9         -5.1037   -3.0056   -2.7773 H         1 <0>         0.4500
     29 H10        -3.1808   -1.8352   -6.1133 H         1 <0>         0.4627
@<TRIPOS>BOND
     1    1    6 ar
     2    1    2 ar
     3    1   20 1
     4    2    3 ar
     5    2   21 1
     6    3   19 1
     7    3    4 ar
     8    4    5 ar
     9    4   17 1
    10    5    6 ar
    11    5   22 1
    12    6    7 1
    13    7    8 1
    14    7   23 1
    15    7   24 1
    16    8    9 am
    17    8   25 1
    18    9   10 2
    19    9   11 1
    20   11   16 1
    21   11   12 2
    22   12   13 1
    23   13   14 am
    24   13   29 1
    25   14   15 2
    26   14   16 am
    27   16   28 1
    28   17   18 1
    29   18   19 1
    30   18   26 1
    31   18   27 1
@<TRIPOS>MOLECULE
ZINC43407176
   42    44     0     0     0
SMALL
USER_CHARGES

@<TRIPOS>ATOM
      1 C1         -0.0817    1.5017    0.0102 C.3       1 <0>        -0.0585
      2 C2         -0.0516   -0.0050    0.0019 C.2       1 <0>         0.0296
      3 N1         -0.0264   -0.8443   -1.0138 N.2       1 <0>        -0.2345
      4 N2         -0.0028   -2.0866   -0.7844 N.2       1 <0>        -0.2999
      5 C3         -0.0026   -2.5686    0.4429 C.2       1 <0>         0.2545
      6 S1         -0.0318   -1.1587    1.3669 S.3       1 <0>         0.0688
      7 N3          0.0208   -3.8936    0.8649 N.am      1 <0>        -0.6229
      8 C4          0.0483   -4.8895   -0.0427 C.2       1 <0>         0.6968
      9 O1          0.0526   -4.6296   -1.2305 O.2       1 <0>        -0.5228
     10 N4          0.0709   -6.1735    0.3662 N.am      1 <0>        -0.7309
     11 C5          0.1008   -7.2561   -0.6204 C.3       1 <0>         0.1869
     12 C6          0.1219   -8.5841    0.0916 C.ar      1 <0>        -0.1686
     13 C7          1.3296   -9.1651    0.4322 C.ar      1 <0>        -0.0456
     14 C8          1.3526  -10.3821    1.0847 C.ar      1 <0>        -0.1973
     15 C9          0.1606  -11.0226    1.3988 C.ar      1 <0>         0.2295
     16 C10        -1.0508  -10.4361    1.0551 C.ar      1 <0>        -0.1967
     17 C11        -1.0667   -9.2163    0.4078 C.ar      1 <0>        -0.0468
     18 N5          0.1802  -12.2537    2.0583 N.pl3     1 <0>        -0.6332
     19 C12        -1.0631  -12.9003    2.5110 C.3       1 <0>         0.1036
     20 C13        -1.1934  -14.2428    1.7891 C.3       1 <0>         0.0922
     21 N6          0.0638  -14.9769    1.8327 N.am      1 <0>        -0.7172
     22 C14         1.2595  -14.4199    2.0306 C.2       1 <0>         0.5115
     23 O2          2.2440  -15.1252    1.9667 O.2       1 <0>        -0.5447
     24 C15         1.4425  -12.9597    2.3233 C.3       1 <0>         0.1097
     25 H1          0.9385    1.8855    0.0147 H         1 <0>         0.0947
     26 H2         -0.6006    1.8596   -0.8791 H         1 <0>         0.1013
     27 H3         -0.6048    1.8497    0.9009 H         1 <0>         0.0900
     28 H4          0.0173   -4.1009    1.8125 H         1 <0>         0.4240
     29 H5          0.0674   -6.3809    1.3138 H         1 <0>         0.3996
     30 H6         -0.7855   -7.1965   -1.2521 H         1 <0>         0.0775
     31 H7          0.9941   -7.1605   -1.2377 H         1 <0>         0.0775
     32 H8          2.2560   -8.6668    0.1874 H         1 <0>         0.1259
     33 H9          2.2962  -10.8355    1.3502 H         1 <0>         0.1254
     34 H10        -1.9794  -10.9316    1.2975 H         1 <0>         0.1260
     35 H11        -2.0083   -8.7577    0.1442 H         1 <0>         0.1257
     36 H12        -1.0214  -13.0642    3.5878 H         1 <0>         0.0785
     37 H13        -1.9165  -12.2674    2.2675 H         1 <0>         0.1060
     38 H14        -1.9716  -14.8351    2.2706 H         1 <0>         0.0910
     39 H15        -1.4696  -14.0659    0.7496 H         1 <0>         0.0720
     40 H16         0.0291  -15.9385    1.7096 H         1 <0>         0.4023
     41 H17         2.2279  -12.5555    1.6847 H         1 <0>         0.1184
     42 H18         1.7192  -12.8326    3.3699 H         1 <0>         0.1004
@<TRIPOS>BOND
     1    1    2 1
     2    1   25 1
     3    1   26 1
     4    1   27 1
     5    2    6 1
     6    2    3 2
     7    3    4 1
     8    4    5 2
     9    5    6 1
    10    5    7 1
    11    7    8 am
    12    7   28 1
    13    8    9 2
    14    8   10 am
    15   10   11 1
    16   10   29 1
    17   11   12 1
    18   11   30 1
    19   11   31 1
    20   12   17 ar
    21   12   13 ar
    22   13   14 ar
    23   13   32 1
    24   14   15 ar
    25   14   33 1
    26   15   16 ar
    27   15   18 1
    28   16   17 ar
    29   16   34 1
    30   17   35 1
    31   18   24 1
    32   18   19 1
    33   19   20 1
    34   19   36 1
    35   19   37 1
    36   20   21 1
    37   20   38 1
    38   20   39 1
    39   21   22 am
    40   21   40 1
    41   22   23 2
    42   22   24 1
    43   24   41 1
    44   24   42 1
@<TRIPOS>MOLECULE
ZINC35680590
   45    45     0     0     0
SMALL
USER_CHARGES

@<TRIPOS>ATOM
      1 C1         -0.0187    1.5258    0.0104 C.3       1 <0>        -0.1668
      2 C2          0.0021   -0.0041    0.0020 C.3       1 <0>         0.1840
      3 C3          0.7421   -0.5109    1.2415 C.3       1 <0>        -0.1672
      4 C4         -1.4333   -0.5336    0.0129 C.3       1 <0>        -0.1562
      5 N1          0.6878   -0.4765   -1.2033 N.am      1 <0>        -0.7302
      6 C5          1.9715   -0.1323   -1.4270 C.2       1 <0>         0.6951
      7 O1          2.5602    0.5702   -0.6288 O.2       1 <0>        -0.5222
      8 N2          2.6023   -0.5669   -2.5359 N.am      1 <0>        -0.6934
      9 C6          3.8860   -0.2226   -2.7596 C.2       1 <0>         0.5173
     10 O2          4.4733    0.4780   -1.9634 O.2       1 <0>        -0.4490
     11 C7          4.5914   -0.7086   -3.9995 C.3       1 <0>         0.0377
     12 N3          5.9696   -0.2002   -4.0099 N.3       1 <0>        -0.5261
     13 C8          5.9903    1.2625   -4.1528 C.3       1 <0>         0.0222
     14 C9          7.4375    1.7568   -4.0993 C.3       1 <0>        -0.0019
     15 N4          8.2092    1.1309   -5.1812 N.4       1 <0>        -0.3614
     16 C10         8.1998   -0.3280   -5.0110 C.3       1 <0>        -0.0054
     17 C11         6.7589   -0.8397   -5.0720 C.3       1 <0>         0.0340
     18 C12         9.5939    1.6195   -5.1406 C.3       1 <0>        -0.0828
     19 C13        10.3540    1.0737   -6.3218 C.2       1 <0>         0.4876
     20 O3          9.7941    0.3452   -7.1233 O.co2     1 <0>        -0.6747
     21 O4         11.5289    1.3605   -6.4761 O.co2     1 <0>        -0.6381
     22 H1          1.0039    1.9031    0.0027 H         1 <0>         0.0790
     23 H2         -0.5459    1.8868   -0.8726 H         1 <0>         0.0542
     24 H3         -0.5289    1.8773    0.9072 H         1 <0>         0.0669
     25 H4          0.2319   -0.1594    2.1383 H         1 <0>         0.0668
     26 H5          0.7568   -1.6008    1.2356 H         1 <0>         0.0547
     27 H6          1.7647   -0.1336    1.2338 H         1 <0>         0.0793
     28 H7         -1.9605   -0.1726   -0.8702 H         1 <0>         0.0634
     29 H8         -1.4185   -1.6235    0.0069 H         1 <0>         0.0637
     30 H9         -1.9435   -0.1821    0.9097 H         1 <0>         0.0784
     31 H10         0.2179   -1.0371   -1.8404 H         1 <0>         0.3975
     32 H11         2.1325   -1.1275   -3.1729 H         1 <0>         0.4097
     33 H12         4.6062   -1.7985   -4.0055 H         1 <0>         0.1217
     34 H13         4.0642   -0.3476   -4.8825 H         1 <0>         0.0804
     35 H14         5.5460    1.5408   -5.1084 H         1 <0>         0.0554
     36 H15         5.4211    1.7153   -3.3410 H         1 <0>         0.1301
     37 H16         7.4562    2.8400   -4.2194 H         1 <0>         0.1281
     38 H17         7.8772    1.4902   -3.1382 H         1 <0>         0.1321
     39 H18         8.7836   -0.7904   -5.8069 H         1 <0>         0.1643
     40 H19         8.6356   -0.5839   -4.0452 H         1 <0>         0.1219
     41 H20         6.7504   -1.9204   -4.9308 H         1 <0>         0.1190
     42 H21         6.3273   -0.5959   -6.0428 H         1 <0>         0.0624
     43 H22         9.5962    2.7088   -5.1789 H         1 <0>         0.1245
     44 H23        10.0694    1.2874   -4.2177 H         1 <0>         0.1245
     45 H24         7.7951    1.3682   -6.0702 H         1 <0>         0.4196
@<TRIPOS>BOND
     1    1    2 1
     2    1   22 1
     3    1   23 1
     4    1   24 1
     5    2    3 1
     6    2    4 1
     7    2    5 1
     8    3   25 1
     9    3   26 1
    10    3   27 1
    11    4   28 1
    12    4   29 1
    13    4   30 1
    14    5    6 am
    15    5   31 1
    16    6    7 2
    17    6    8 am
    18    8    9 am
    19    8   32 1
    20    9   10 2
    21    9   11 1
    22   11   12 1
    23   11   33 1
    24   11   34 1
    25   12   17 1
    26   12   13 1
    27   13   14 1
    28   13   35 1
    29   13   36 1
    30   14   15 1
    31   14   37 1
    32   14   38 1
    33   15   16 1
    34   15   18 1
    35   15   45 1
    36   16   17 1
    37   16   39 1
    38   16   40 1
    39   17   41 1
    40   17   42 1
    41   18   19 1
    42   18   43 1
    43   18   44 1
    44   19   20 2
    45   19   21 1
@<TRIPOS>MOLECULE
ZINC42437990
   39    40     0     0     0
SMALL
USER_CHARGES

@<TRIPOS>ATOM
      1 C1         -0.0187    1.5258    0.0104 C.3       1 <0>        -0.1861
      2 C2          0.0021   -0.0041    0.0020 C.3       1 <0>         0.0233
      3 H1          0.5123   -0.3551   -0.8949 H         1 <0>         0.1363
      4 C3         -1.4337   -0.5331    0.0113 C.3       1 <0>        -0.1429
      5 C4         -1.4079   -2.0642    0.0026 C.3       1 <0>        -0.1269
      6 C5         -0.5995   -2.5582    1.2058 C.3       1 <0>        -0.1326
      7 H2         -0.5296   -3.6455    1.1757 H         1 <0>         0.1420
      8 C6          0.8054   -1.9542    1.1523 C.3       1 <0>         0.0024
      9 N1          0.7134   -0.4897    1.1906 N.4       1 <0>        -0.3727
     10 C7          2.0657    0.0833    1.2183 C.3       1 <0>        -0.0465
     11 C8          2.7540   -0.3151    2.4984 C.2       1 <0>         0.4302
     12 O1          2.1742   -1.0090    3.3090 O.2       1 <0>        -0.4699
     13 C9          4.0744    0.1189    2.7555 C.2       1 <0>        -0.1588
     14 C10         4.8287   -0.1723    3.8792 C.2       1 <0>        -0.0832
     15 C11         6.0639    0.4566    3.7140 C.2       1 <0>        -0.1830
     16 C12         6.0456    1.1054    2.5230 C.2       1 <0>         0.0564
     17 N2          4.8504    0.9053    1.9308 N.2       1 <0>        -0.4892
     18 N3          7.1937    0.4216    4.6694 N.pl3     1 <0>         0.0777
     19 O2          7.0910   -0.1941    5.7048 O.2       1 <0>        -0.2128
     20 O3          8.2193    1.0088    4.4145 O.3       1 <0>        -0.2061
     21 C13        -1.2828   -2.1330    2.4799 C.2       1 <0>         0.5117
     22 O4         -0.7023   -1.4196    3.2705 O.2       1 <0>        -0.5262
     23 N4         -2.5391   -2.5454    2.7409 N.am      1 <0>        -0.8411
     24 H3          1.0039    1.9031    0.0027 H         1 <0>         0.0887
     25 H4         -0.5459    1.8868   -0.8726 H         1 <0>         0.1036
     26 H5         -0.5289    1.8773    0.9072 H         1 <0>         0.0787
     27 H6         -1.9449   -0.1828    0.9081 H         1 <0>         0.0840
     28 H7         -1.9601   -0.1729   -0.8726 H         1 <0>         0.1154
     29 H8         -2.4267   -2.4464    0.0663 H         1 <0>         0.0956
     30 H9         -0.9424   -2.4157   -0.9182 H         1 <0>         0.0975
     31 H10         1.3836   -2.3040    2.0074 H         1 <0>         0.1528
     32 H11         1.2983   -2.2632    0.2305 H         1 <0>         0.1315
     33 H12         2.6360   -0.2901    0.3677 H         1 <0>         0.1535
     34 H13         2.0011    1.1700    1.1635 H         1 <0>         0.1578
     35 H14         4.5203   -0.7719    4.7229 H         1 <0>         0.1314
     36 H15         6.8589    1.6858    2.1129 H         1 <0>         0.1583
     37 H16        -3.0035   -3.1159    2.1086 H         1 <0>         0.4063
     38 H17        -2.9790   -2.2717    3.5610 H         1 <0>         0.4120
     39 H18         0.2132   -0.2063    2.0198 H         1 <0>         0.4304
@<TRIPOS>BOND
     1    1    2 1
     2    1   24 1
     3    1   25 1
     4    1   26 1
     5    2    3 1
     6    2    9 1
     7    2    4 1
     8    4    5 1
     9    4   27 1
    10    4   28 1
    11    5    6 1
    12    5   29 1
    13    5   30 1
    14    6    7 1
    15    6    8 1
    16    6   21 1
    17    8    9 1
    18    8   31 1
    19    8   32 1
    20    9   10 1
    21    9   39 1
    22   10   11 1
    23   10   33 1
    24   10   34 1
    25   11   12 2
    26   11   13 1
    27   13   17 1
    28   13   14 2
    29   14   15 1
    30   14   35 1
    31   15   16 2
    32   15   18 1
    33   16   17 1
    34   16   36 1
    35   18   19 2
    36   18   20 1
    37   21   22 2
    38   21   23 am
    39   23   37 1
    40   23   38 1
@<TRIPOS>MOLECULE
ZINC49545544
   39    40     0     0     0
SMALL
USER_CHARGES

@<TRIPOS>ATOM
      1 C1         -0.0184    1.5028    0.0103 C.3       1 <0>        -0.0763
      2 C2          0.0021   -0.0041    0.0020 C.2       1 <0>         0.0849
      3 C3          0.0080   -0.8179   -1.1355 C.2       1 <0>        -0.2421
      4 C4          0.0279   -2.1072   -0.7249 C.2       1 <0>         0.0954
      5 N1          0.0343   -2.1090    0.6245 N.pl3     1 <0>        -0.3723
      6 N2          0.0231   -0.7768    1.0576 N.2       1 <0>        -0.2954
      7 C5          0.0548   -3.2948    1.4847 C.3       1 <0>         0.0993
      8 C6          0.0401   -3.3230   -1.6152 C.3       1 <0>        -0.0963
      9 C7         -0.0061   -0.3430   -2.5656 C.3       1 <0>        -0.0480
     10 C8          1.4315   -0.1621   -3.0571 C.3       1 <0>         0.1216
     11 N3          1.4177    0.2997   -4.4474 N.am      1 <0>        -0.6937
     12 C9          2.5785    0.5284   -5.0930 C.2       1 <0>         0.5156
     13 O1          3.6351    0.3518   -4.5226 O.2       1 <0>        -0.5130
     14 C10         2.5645    0.9989   -6.5099 C.2       1 <0>         0.5165
     15 O2          1.5076    1.1755   -7.0804 O.2       1 <0>        -0.4800
     16 N4          3.7253    1.2277   -7.1555 N.am      1 <0>        -0.6231
     17 C11         3.7122    1.6664   -8.4765 C.2       1 <0>         0.2993
     18 C12         2.6066    1.9102   -9.2338 C.2       1 <0>        -0.2706
     19 C13         3.0353    2.3328  -10.4943 C.2       1 <0>         0.0642
     20 N5          4.3437    2.3457  -10.5041 N.2       1 <0>        -0.2785
     21 N6          4.7998    1.9355   -9.2448 N.pl3     1 <0>        -0.4892
     22 H1          5.7269    1.8557   -8.9708 H         1 <0>         0.4385
     23 H2          1.0042    1.8801    0.0026 H         1 <0>         0.0778
     24 H3         -0.5455    1.8639   -0.8728 H         1 <0>         0.0782
     25 H4         -0.5286    1.8543    0.9071 H         1 <0>         0.0739
     26 H5          1.0875   -3.5746    1.6932 H         1 <0>         0.0760
     27 H6         -0.4577   -3.0734    2.4209 H         1 <0>         0.0905
     28 H7         -0.4500   -4.1185    0.9800 H         1 <0>         0.0876
     29 H8          1.0706   -3.6020   -1.8350 H         1 <0>         0.0825
     30 H9         -0.4598   -4.1489   -1.1091 H         1 <0>         0.0721
     31 H10        -0.4816   -3.0976   -2.5453 H         1 <0>         0.0872
     32 H11        -0.5129   -1.0802   -3.1883 H         1 <0>         0.0774
     33 H12        -0.5336    0.6089   -2.6271 H         1 <0>         0.0810
     34 H13         1.9383    0.5752   -2.4344 H         1 <0>         0.0775
     35 H14         1.9590   -1.1139   -2.9956 H         1 <0>         0.0750
     36 H15         0.5732    0.4408   -4.9033 H         1 <0>         0.4155
     37 H16         4.5698    1.0866   -6.6996 H         1 <0>         0.4251
     38 H17         1.5806    1.7966   -8.9162 H         1 <0>         0.1751
     39 H18         2.3952    2.6032  -11.3210 H         1 <0>         0.1907
@<TRIPOS>BOND
     1    1    2 1
     2    1   23 1
     3    1   24 1
     4    1   25 1
     5    2    6 2
     6    2    3 1
     7    3    4 2
     8    3    9 1
     9    4    5 1
    10    4    8 1
    11    5    6 1
    12    5    7 1
    13    7   26 1
    14    7   27 1
    15    7   28 1
    16    8   29 1
    17    8   30 1
    18    8   31 1
    19    9   10 1
    20    9   32 1
    21    9   33 1
    22   10   11 1
    23   10   34 1
    24   10   35 1
    25   11   12 am
    26   11   36 1
    27   12   13 2
    28   12   14 1
    29   14   15 2
    30   14   16 am
    31   16   17 1
    32   16   37 1
    33   17   21 1
    34   17   18 2
    35   18   19 1
    36   18   38 1
    37   19   20 2
    38   19   39 1
    39   20   21 1
    40   21   22 1
@<TRIPOS>MOLECULE
ZINC61146586
   43    44     0     0     0
SMALL
USER_CHARGES

@<TRIPOS>ATOM
      1 C1         -0.0188    1.5369    0.0105 C.3       1 <0>        -0.1212
      2 C2          1.4016    2.1363    0.0001 C.3       1 <0>         0.0391
      3 N1          2.3152    1.4358    0.8703 N.3       1 <0>        -0.5243
      4 C3          3.0492    0.3899    0.1153 C.3       1 <0>         0.0257
      5 C4          2.2258   -0.7983   -0.0991 C.3       1 <0>        -0.0030
      6 N2          1.0105   -0.5240   -0.8903 N.4       1 <0>        -0.3525
      7 C5          0.0021   -0.0041    0.0020 C.3       1 <0>         0.0035
      8 C6          0.5313   -1.7665   -1.5103 C.3       1 <0>        -0.0831
      9 C7         -0.6351   -1.4597   -2.4137 C.2       1 <0>         0.4849
     10 O1         -1.0306   -0.3124   -2.5303 O.co2     1 <0>        -0.6697
     11 O2         -1.1834   -2.3589   -3.0281 O.co2     1 <0>        -0.6427
     12 C8          3.2467    2.3696    1.5172 C.3       1 <0>         0.0408
     13 C9          2.4840    3.2736    2.4511 C.2       1 <0>         0.5132
     14 O3          1.2833    3.1521    2.5664 O.2       1 <0>        -0.4405
     15 N3          3.1368    4.2173    3.1581 N.am      1 <0>        -0.6925
     16 C10         2.4548    5.0258    3.9933 C.2       1 <0>         0.6980
     17 O4          1.2511    4.9040    4.1089 O.2       1 <0>        -0.5237
     18 N4          3.1076    5.9694    4.7003 N.am      1 <0>        -0.7086
     19 C11         2.3662    6.8483    5.6082 C.3       1 <0>         0.0915
     20 C12         2.7164    8.3376    5.5923 C.3       1 <0>        -0.1914
     21 C13         3.1349    7.4659    6.7780 C.3       1 <0>        -0.1864
     22 H1         -0.5410    1.8790    0.9040 H         1 <0>         0.1043
     23 H2         -0.5579    1.8885   -0.8692 H         1 <0>         0.0973
     24 H3          1.7899    2.1012   -1.0177 H         1 <0>         0.0438
     25 H4          1.3452    3.1780    0.3160 H         1 <0>         0.0887
     26 H5          3.3494    0.7938   -0.8516 H         1 <0>         0.0644
     27 H6          3.9416    0.1081    0.6741 H         1 <0>         0.1188
     28 H7          2.8213   -1.5484   -0.6195 H         1 <0>         0.1273
     29 H8          1.9300   -1.1995    0.8703 H         1 <0>         0.1299
     30 H9          0.2034   -0.3617    1.0118 H         1 <0>         0.1131
     31 H10        -0.9745   -0.3704   -0.3144 H         1 <0>         0.1309
     32 H11         1.3352   -2.2147   -2.0943 H         1 <0>         0.1221
     33 H12         0.2156   -2.4622   -0.7328 H         1 <0>         0.1239
     34 H13         3.9905    1.8078    2.0821 H         1 <0>         0.1184
     35 H14         3.7455    2.9703    0.7567 H         1 <0>         0.0796
     36 H15         4.0975    4.3145    3.0658 H         1 <0>         0.4098
     37 H16         4.0683    6.0667    4.6080 H         1 <0>         0.3999
     38 H17         1.3240    6.5778    5.7776 H         1 <0>         0.1420
     39 H18         3.4983    8.6635    4.9065 H         1 <0>         0.0981
     40 H19         1.9044    9.0472    5.7513 H         1 <0>         0.1060
     41 H20         2.5984    7.6020    7.7170 H         1 <0>         0.1073
     42 H21         4.1923    7.2183    6.8722 H         1 <0>         0.0986
     43 H22         1.2163    0.1571   -1.6057 H         1 <0>         0.4186
@<TRIPOS>BOND
     1    1    7 1
     2    1    2 1
     3    1   22 1
     4    1   23 1
     5    2    3 1
     6    2   24 1
     7    2   25 1
     8    3    4 1
     9    3   12 1
    10    4    5 1
    11    4   26 1
    12    4   27 1
    13    5    6 1
    14    5   28 1
    15    5   29 1
    16    6    7 1
    17    6    8 1
    18    6   43 1
    19    7   30 1
    20    7   31 1
    21    8    9 1
    22    8   32 1
    23    8   33 1
    24    9   10 2
    25    9   11 1
    26   12   13 1
    27   12   34 1
    28   12   35 1
    29   13   14 2
    30   13   15 am
    31   15   16 am
    32   15   36 1
    33   16   17 2
    34   16   18 am
    35   18   19 1
    36   18   37 1
    37   19   21 1
    38   19   20 1
    39   19   38 1
    40   20   21 1
    41   20   39 1
    42   20   40 1
    43   21   41 1
    44   21   42 1
