@<TRIPOS>MOLECULE
1LI4-NOC
 30 32 0 0 0
SMALL
SF_CHARGES


@<TRIPOS>ATOM
1    C        42.9700  -18.8800  104.4030  C.3        1 SUBUNIT      0.2291
2    O        42.7730  -20.0430  105.2780  O.3        1 SUBUNIT     -0.5554
3    C        44.9400  -19.7130  103.1690  C.2        1 SUBUNIT     -0.1291
4    C        44.3370  -18.8100  104.0190  C.2        1 SUBUNIT     -0.0595
5    C        45.3030  -17.8470  104.5790  C.2        1 SUBUNIT      0.4607
6    O        45.0870  -16.8260  105.1880  O.2        1 SUBUNIT     -0.5392
7    C        46.4790  -17.9870  103.6650  C.3        1 SUBUNIT      0.2150
8    O        47.6540  -17.6860  104.4020  O.3        1 SUBUNIT     -0.5686
9    C        46.4280  -19.4820  103.1520  C.3        1 SUBUNIT      0.1747
10   N        47.1500  -19.8960  101.9590  N.pl3      1 SUBUNIT     -0.2724
11   C        47.0330  -19.3640  100.6760  C.2        1 SUBUNIT      0.2650
12   N        47.7970  -19.9540   99.8240  N.2        1 SUBUNIT     -0.5208
13   C        48.4810  -20.9420  100.5410  C.2        1 SUBUNIT      0.1977
14   C        49.4730  -21.9390  100.2160  C.2        1 SUBUNIT      0.3612
15   N        49.9870  -22.0920   98.9540  N.pl3      1 SUBUNIT     -0.6792
16   N        49.8890  -22.7510  101.2830  N.2        1 SUBUNIT     -0.5385
17   C        49.4060  -22.6100  102.5020  C.2        1 SUBUNIT      0.4392
18   N        48.4820  -21.7170  102.9280  N.2        1 SUBUNIT     -0.5374
19   C        48.0430  -20.8920  101.9050  C.2        1 SUBUNIT      0.3346
20   H        42.3497  -18.9787  103.5061  H          1 SUBUNIT      0.0251
21   H        42.6992  -17.9624  104.9356  H          1 SUBUNIT      0.0251
22   H        43.1999  -19.8737  106.1210  H          1 SUBUNIT      0.3855
23   H        44.3904  -20.4564  102.6185  H          1 SUBUNIT      0.0934
24   H        46.4970  -17.2678  102.8395  H          1 SUBUNIT      0.0254
25   H        48.3088  -17.3155  103.8056  H          1 SUBUNIT      0.3861
26   H        47.0317  -20.1797  103.7418  H          1 SUBUNIT      0.0280
27   H        46.3878  -18.5517  100.3904  H          1 SUBUNIT      0.0664
28   H        50.6787  -22.8028   98.7743  H          1 SUBUNIT      0.3210
29   H        49.6731  -21.4936   98.2060  H          1 SUBUNIT      0.3210
30   H        49.8016  -23.2915  103.2347  H          1 SUBUNIT      0.0459
@<TRIPOS>BOND
     1    1    2 1
     2    1    4 1
     3    3    4 2
     4    3    9 1
     5    4    5 1
     6    5    6 2
     7    5    7 1
     8    7    8 1
     9    7    9 1
    10    9   10 1
    11   10   11 1
    12   10   19 1
    13   11   12 2
    14   12   13 1
    15   13   14 2
    16   13   19 1
    17   14   15 1
    18   14   16 1
    19   16   17 2
    20   17   18 1
    21   18   19 2
    22    1   20 1
    23    1   21 1
    24    2   22 1
    25    3   23 1
    26    7   24 1
    27    8   25 1
    28    9   26 1
    29   11   27 1
    30   15   28 1
    31   15   29 1
    32   17   30 1
