@<TRIPOS>MOLECULE
3EL8-PD5
 53 56 0 0 0
SMALL
SF_CHARGES


@<TRIPOS>ATOM
1    C         6.2140    8.2230    6.7640  C.2        1 SUBUNIT      0.3659
2    C         5.5660    7.2160    7.4560  C.2        1 SUBUNIT     -0.0761
3    C         6.3210    6.1690    7.9710  C.2        1 SUBUNIT      0.4030
4    N         7.6450    6.1770    7.7750  N.2        1 SUBUNIT     -0.5195
5    N         7.5500    8.1660    6.6060  N.2        1 SUBUNIT     -0.5198
6    C         4.5340   11.3850    5.9670  C.3        1 SUBUNIT     -0.1037
7    C         5.5470   10.2950    5.6080  C.3        1 SUBUNIT      0.1676
8    C         5.4760    9.9560    4.1170  C.3        1 SUBUNIT     -0.1037
9    N         5.2760    9.0850    6.3950  N.pl3      1 SUBUNIT     -0.1269
10   N         4.1520    8.7370    6.7720  N.2        1 SUBUNIT     -0.3647
11   C         8.2340    7.1580    7.1080  C.2        1 SUBUNIT      0.4553
12   N         5.7480    5.1820    8.6540  N.pl3      1 SUBUNIT     -0.6656
13   C         4.2290    7.5870    7.4340  C.2        1 SUBUNIT      0.2547
14   C         3.1800    6.8750    8.0070  C.2        1 SUBUNIT     -0.0283
15   C         2.2670    7.5370    8.8170  C.2        1 SUBUNIT     -0.1044
16   C         1.1220    6.8810    9.2590  C.2        1 SUBUNIT     -0.1115
17   C         2.9520    5.5450    7.6680  C.2        1 SUBUNIT     -0.1044
18   C         1.8060    4.8880    8.1080  C.2        1 SUBUNIT     -0.1115
19   C         0.8780    5.5610    8.8950  C.2        1 SUBUNIT      0.1167
20   N        -0.3080    5.0370    9.2080  N.am       1 SUBUNIT     -0.5399
21   C        -0.7220    3.8010    8.9400  C.2        1 SUBUNIT      0.8169
22   O        -0.0200    2.9710    8.3680  O.2        1 SUBUNIT     -0.5604
23   N        -1.9640    3.5470    9.3470  N.am       1 SUBUNIT     -0.5439
24   C        -2.6380    2.4050    9.2120  C.2        1 SUBUNIT      0.1099
25   C        -2.1110    1.2750    8.5990  C.2        1 SUBUNIT     -0.1236
26   C        -3.9360    2.3690    9.7040  C.2        1 SUBUNIT     -0.1218
27   C        -4.7120    1.2210    9.5860  C.2        1 SUBUNIT     -0.1108
28   C        -4.1780    0.0970    8.9700  C.2        1 SUBUNIT     -0.1147
29   C        -2.8790    0.1200    8.4760  C.2        1 SUBUNIT     -0.0860
30   C        -2.3200   -1.1450    7.8190  C.3        1 SUBUNIT      0.7787
31   F        -2.2560   -2.1120    8.7290  F          1 SUBUNIT     -0.2808
32   F        -3.1270   -1.5200    6.8320  F          1 SUBUNIT     -0.2808
33   F        -1.1040   -0.9320    7.3280  F          1 SUBUNIT     -0.2808
34   H         4.7281   12.3026    5.4019  H          1 SUBUNIT      0.0448
35   H         4.5823   11.6298    7.0332  H          1 SUBUNIT      0.0448
36   H         3.5125   11.0609    5.7421  H          1 SUBUNIT      0.0448
37   H         6.5534   10.6497    5.8537  H          1 SUBUNIT      0.0248
38   H         4.4791    9.5946    3.8438  H          1 SUBUNIT      0.0448
39   H         6.1996    9.1764    3.8569  H          1 SUBUNIT      0.0448
40   H         5.6947   10.8363    3.5036  H          1 SUBUNIT      0.0448
41   H         9.3009    7.1335    6.9708  H          1 SUBUNIT      0.0481
42   H         6.3104    4.4301    9.0207  H          1 SUBUNIT      0.3222
43   H         4.7514    5.1858    8.8049  H          1 SUBUNIT      0.3222
44   H         2.4461    8.5588    9.1028  H          1 SUBUNIT      0.1075
45   H         0.4192    7.3992    9.8878  H          1 SUBUNIT      0.1085
46   H         3.6680    5.0198    7.0603  H          1 SUBUNIT      0.1075
47   H         1.6379    3.8597    7.8395  H          1 SUBUNIT      0.1085
48   H        -0.9557    5.6357    9.6959  H          1 SUBUNIT      0.3228
49   H        -2.4474    4.3019    9.8080  H          1 SUBUNIT      0.3236
50   H        -1.1049    1.2936    8.2180  H          1 SUBUNIT      0.1119
51   H        -4.3460    3.2411   10.1826  H          1 SUBUNIT      0.1124
52   H        -5.7176    1.2031    9.9685  H          1 SUBUNIT      0.1128
53   H        -4.7724   -0.7949    8.8750  H          1 SUBUNIT      0.1131
@<TRIPOS>BOND
     1    1    2 2
     2    1    5 1
     3    1    9 1
     4    2    3 1
     5    2   13 1
     6    3    4 2
     7    3   12 1
     8    4   11 1
     9    5   11 2
    10    6    7 1
    11    7    8 1
    12    7    9 1
    13    9   10 1
    14   10   13 2
    15   13   14 1
    16   14   15 2
    17   14   17 1
    18   15   16 1
    19   16   19 2
    20   17   18 2
    21   18   19 1
    22   19   20 1
    23   20   21 1
    24   21   22 2
    25   21   23 1
    26   23   24 1
    27   24   25 2
    28   24   26 1
    29   25   29 1
    30   26   27 2
    31   27   28 1
    32   28   29 2
    33   29   30 1
    34   30   31 1
    35   30   32 1
    36   30   33 1
    37    6   34 1
    38    6   35 1
    39    6   36 1
    40    7   37 1
    41    8   38 1
    42    8   39 1
    43    8   40 1
    44   11   41 1
    45   12   42 1
    46   12   43 1
    47   15   44 1
    48   16   45 1
    49   17   46 1
    50   18   47 1
    51   20   48 1
    52   23   49 1
    53   25   50 1
    54   26   51 1
    55   27   52 1
    56   28   53 1
