@<TRIPOS>MOLECULE
2RGP-HYZ
 58 62 0 0 0
SMALL
SF_CHARGES


@<TRIPOS>ATOM
1    C        14.7180   40.1160   97.0990  C.2        1 SUBUNIT     -0.0971
2    C        16.0310   40.2220   97.6320  C.2        1 SUBUNIT     -0.0896
3    C        16.8780   39.0760   97.6860  C.2        1 SUBUNIT     -0.0973
4    N        13.9670   33.2580   86.9490  N.pl3      1 SUBUNIT     -0.6643
5    C        17.3230   36.5580   97.2600  C.3        1 SUBUNIT      0.1559
6    C        15.5850   33.7600   95.9940  C.2        1 SUBUNIT      0.1710
7    C        16.0750   34.2210   94.7560  C.2        1 SUBUNIT     -0.0292
8    C        16.8400   35.3580   95.0700  C.2        1 SUBUNIT      0.0746
9    C        17.5140   36.1290   94.0760  C.2        1 SUBUNIT     -0.1081
10   C        17.3900   35.7120   92.7350  C.2        1 SUBUNIT     -0.1086
11   C        16.6250   34.5740   92.3820  C.2        1 SUBUNIT      0.1204
12   C        15.9650   33.8170   93.4030  C.2        1 SUBUNIT     -0.1134
13   C        14.1240   33.6450   88.2640  C.2        1 SUBUNIT      0.3962
14   C        15.3910   33.7190   88.8960  C.2        1 SUBUNIT     -0.0771
15   C        16.6440   33.3950   88.1860  C.2        1 SUBUNIT      0.1886
16   C        19.5090   31.9970   84.8580  C.3        1 SUBUNIT     -0.0747
17   C        18.1270   31.9340   85.5370  C.3        1 SUBUNIT      0.1491
18   C        19.1670   31.5240   87.7400  C.3        1 SUBUNIT      0.1491
19   C        20.5540   31.1900   85.6350  C.3        1 SUBUNIT     -0.0571
20   C        16.4190   37.8080   97.2090  C.2        1 SUBUNIT     -0.0420
21   C        15.0830   37.7300   96.6750  C.2        1 SUBUNIT     -0.1146
22   C        14.2560   38.8690   96.6250  C.2        1 SUBUNIT      0.1447
23   F        13.0110   38.7560   96.1180  F          1 SUBUNIT     -0.1893
24   N        16.7310   35.4930   96.4340  N.pl3      1 SUBUNIT     -0.1207
25   N        15.9710   34.5190   97.0190  N.2        1 SUBUNIT     -0.3592
26   N        16.5250   34.2480   91.0370  N.pl3      1 SUBUNIT     -0.5180
27   N        12.9540   33.9630   88.9110  N.2        1 SUBUNIT     -0.5279
28   C        15.3910   34.1200   90.2310  C.2        1 SUBUNIT      0.3864
29   N        14.2120   34.4440   90.8920  N.2        1 SUBUNIT     -0.5296
30   C        13.0410   34.3520   90.2010  C.2        1 SUBUNIT      0.4481
31   N        16.9000   32.2900   87.5590  N.2        1 SUBUNIT     -0.3409
32   N        18.1460   32.3440   86.9840  N.pl3      1 SUBUNIT     -0.3854
33   C        20.5730   31.5960   87.1120  C.3        1 SUBUNIT     -0.0747
34   H        14.0771   40.9792   97.0555  H          1 SUBUNIT      0.1070
35   H        16.3855   41.1707   97.9955  H          1 SUBUNIT      0.1060
36   H        17.8712   39.1676   98.0896  H          1 SUBUNIT      0.1052
37   H        13.0459   33.2200   86.5413  H          1 SUBUNIT      0.3214
38   H        14.7734   33.0132   86.3959  H          1 SUBUNIT      0.3214
39   H        18.3178   36.7978   96.8702  H          1 SUBUNIT      0.0253
40   H        17.4109   36.1999   98.2911  H          1 SUBUNIT      0.0253
41   H        14.9639   32.8914   96.1263  H          1 SUBUNIT      0.0750
42   H        18.0961   36.9964   94.3339  H          1 SUBUNIT      0.1025
43   H        17.8889   36.2727   91.9640  H          1 SUBUNIT      0.1024
44   H        15.3874   32.9453   93.1495  H          1 SUBUNIT      0.1023
45   H        17.4601   34.0951   88.1463  H          1 SUBUNIT      0.0705
46   H        19.4280   31.5892   83.8450  H          1 SUBUNIT      0.0470
47   H        19.8343   33.0413   84.8067  H          1 SUBUNIT      0.0470
48   H        17.4424   32.6017   85.0036  H          1 SUBUNIT      0.0284
49   H        17.7537   30.9062   85.4799  H          1 SUBUNIT      0.0284
50   H        19.2182   31.8985   88.7677  H          1 SUBUNIT      0.0284
51   H        18.8350   30.4806   87.7473  H          1 SUBUNIT      0.0284
52   H        20.3124   30.1247   85.5596  H          1 SUBUNIT      0.0464
53   H        21.5426   31.3722   85.2008  H          1 SUBUNIT      0.0464
54   H        14.7009   36.7941   96.3064  H          1 SUBUNIT      0.1061
55   H        17.4047   34.0787   90.5750  H          1 SUBUNIT      0.3182
56   H        12.1272   34.6037   90.7104  H          1 SUBUNIT      0.0520
57   H        20.9469   32.6221   87.1918  H          1 SUBUNIT      0.0470
58   H        21.2413   30.9202   87.6558  H          1 SUBUNIT      0.0470
@<TRIPOS>BOND
     1    1    2 2
     2    1   22 1
     3    2    3 1
     4    3   20 2
     5    4   13 1
     6    5   20 1
     7    5   24 1
     8    6    7 1
     9    6   25 2
    10    7    8 2
    11    7   12 1
    12    8    9 1
    13    8   24 1
    14    9   10 2
    15   10   11 1
    16   11   12 2
    17   11   26 1
    18   13   14 2
    19   13   27 1
    20   14   15 1
    21   14   28 1
    22   15   31 2
    23   16   17 1
    24   16   19 1
    25   17   32 1
    26   18   32 1
    27   18   33 1
    28   19   33 1
    29   20   21 1
    30   21   22 2
    31   22   23 1
    32   24   25 1
    33   26   28 1
    34   27   30 2
    35   28   29 2
    36   29   30 1
    37   31   32 1
    38    1   34 1
    39    2   35 1
    40    3   36 1
    41    4   37 1
    42    4   38 1
    43    5   39 1
    44    5   40 1
    45    6   41 1
    46    9   42 1
    47   10   43 1
    48   12   44 1
    49   15   45 1
    50   16   46 1
    51   16   47 1
    52   17   48 1
    53   17   49 1
    54   18   50 1
    55   18   51 1
    56   19   52 1
    57   19   53 1
    58   21   54 1
    59   26   55 1
    60   30   56 1
    61   33   57 1
    62   33   58 1
