@<TRIPOS>MOLECULE
ZINC06447457
   30    31     0     0     0
SMALL
USER_CHARGES
8-(2-aminoethyl)-1,3-dimethyl-7H-purine-2,6-dione
@<TRIPOS>ATOM
      1 C1         -1.1275    5.5068    0.0403 C.3       1 <0>         0.0866
      2 N1         -1.5895    4.1166    0.0380 N.am      1 <0>        -0.5121
      3 C2         -0.6685    3.0816    0.0242 C.2       1 <0>         0.3285
      4 C3         -1.1318    1.7719    0.0163 C.2       1 <0>        -0.1278
      5 C4         -2.5231    1.5344    0.0332 C.2       1 <0>         0.5891
      6 O1         -2.9537    0.3951    0.0306 O.2       1 <0>        -0.4998
      7 N2         -3.3705    2.5844    0.0468 N.am      1 <0>        -0.5485
      8 C5         -2.9085    3.8467    0.0489 C.2       1 <0>         0.7055
      9 O2         -3.7020    4.7681    0.0613 O.2       1 <0>        -0.5170
     10 C6         -4.8158    2.3450    0.0590 C.3       1 <0>         0.0786
     11 N3         -0.0111    0.9658    0.0074 N.pl3     1 <0>        -0.5063
     12 H1          0.0025   -0.0341    0.0057 H         1 <0>         0.4473
     13 C7          1.0609    1.7820    0.0015 C.2       1 <0>         0.2635
     14 N4          0.6658    3.0296    0.0115 N.2       1 <0>        -0.4850
     15 C8          2.4975    1.3270   -0.0137 C.3       1 <0>        -0.0625
     16 C9          3.2227    1.9675   -1.1990 C.3       1 <0>         0.0023
     17 H2         -1.0227    5.8565   -0.9868 H         1 <0>         0.0763
     18 H3         -1.8525    6.1298    0.5641 H         1 <0>         0.0986
     19 H4         -0.1635    5.5685    0.5452 H         1 <0>         0.0915
     20 H5         -5.3421    3.2994    0.0687 H         1 <0>         0.1097
     21 H6         -5.0986    1.7832   -0.8313 H         1 <0>         0.0858
     22 H7         -5.0820    1.7742    0.9486 H         1 <0>         0.0860
     23 H8          2.9835    1.6270    0.9147 H         1 <0>         0.1261
     24 H9          2.5340    0.2418   -0.1088 H         1 <0>         0.1132
     25 H10         2.7368    1.6676   -2.1274 H         1 <0>         0.1370
     26 H11         3.1863    3.0527   -1.1039 H         1 <0>         0.1517
     27 H12         5.1239    1.9336   -1.9881 H         1 <0>         0.4466
     28 H13         5.0779    1.7332   -0.3378 H         1 <0>         0.4404
     29 N5          4.6197    1.4991   -1.2169 N.4       1 <0>        -0.6456
     30 H14         4.6324    0.4799   -1.3403 H         1 <0>         0.4403
@<TRIPOS>BOND
     1    1    2 1
     2    1   17 1
     3    1   18 1
     4    1   19 1
     5    2    8 am
     6    2    3 1
     7    3   14 1
     8    3    4 2
     9    4    5 1
    10    4   11 1
    11    5    6 2
    12    5    7 am
    13    7    8 am
    14    7   10 1
    15    8    9 2
    16   10   20 1
    17   10   21 1
    18   10   22 1
    19   11   12 1
    20   11   13 1
    21   13   14 2
    22   13   15 1
    23   15   16 1
    24   15   23 1
    25   15   24 1
    26   16   25 1
    27   16   26 1
    28   16   29 1
    29   27   29 1
    30   28   29 1
    31   29   30 1
@<TRIPOS>MOLECULE
ZINC37027674
   31    32     0     0     0
SMALL
USER_CHARGES

@<TRIPOS>ATOM
      1 C1          0.5369    1.8879    0.1961 C.3       1 <0>        -0.1855
      2 C2         -0.0463    0.5421   -0.2396 C.3       1 <0>         0.0126
      3 H1          0.0903   -0.1883    0.5579 H         1 <0>         0.1724
      4 C3          0.6608    0.0670   -1.4826 C.2       1 <0>         0.4977
      5 O1          0.0324   -0.1234   -2.5025 O.2       1 <0>        -0.5149
      6 N1          1.9914   -0.1465   -1.4611 N.am      1 <0>        -0.6311
      7 C4          2.6302   -0.6963   -2.5787 C.ar      1 <0>         0.1338
      8 C5          1.9168   -1.4849   -3.4700 C.ar      1 <0>        -0.1062
      9 C6          2.5494   -2.0261   -4.5727 C.ar      1 <0>        -0.0956
     10 C7          3.8936   -1.7843   -4.7919 C.ar      1 <0>        -0.0922
     11 C8          4.6117   -1.0002   -3.9095 C.ar      1 <0>        -0.1100
     12 C9          3.9837   -0.4483   -2.8027 C.ar      1 <0>         0.1275
     13 N2          4.7094    0.3526   -1.9088 N.pl3     1 <0>        -0.3308
     14 C10         5.9864    0.7594   -2.0429 C.2       1 <0>         0.2823
     15 N3          6.2912    1.4882   -0.9995 N.2       1 <0>        -0.5268
     16 C11         5.2419    1.5692   -0.1823 C.2       1 <0>         0.2357
     17 N4          4.2473    0.8953   -0.6986 N.2       1 <0>        -0.3632
     18 N5         -1.4798    0.6977   -0.5208 N.4       1 <0>        -0.6196
     19 H2          1.6005    1.7725    0.4047 H         1 <0>         0.1138
     20 H3          0.4002    2.6183   -0.6014 H         1 <0>         0.0908
     21 H4          0.0254    2.2316    1.0952 H         1 <0>         0.1030
     22 H5          2.5063    0.0809   -0.6712 H         1 <0>         0.4310
     23 H6          0.8673   -1.6760   -3.3017 H         1 <0>         0.1539
     24 H7          1.9928   -2.6400   -5.2653 H         1 <0>         0.1425
     25 H8          4.3834   -2.2100   -5.6552 H         1 <0>         0.1466
     26 H9          5.6611   -0.8135   -4.0839 H         1 <0>         0.1446
     27 H10         6.6439    0.5250   -2.8670 H         1 <0>         0.2295
     28 H11         5.2156    2.1086    0.7530 H         1 <0>         0.2291
     29 H12        -1.6063    1.3738   -1.2589 H         1 <0>         0.4409
     30 H13        -1.8644   -0.1898   -0.8080 H         1 <0>         0.4432
     31 H14        -1.9532    1.0158    0.3115 H         1 <0>         0.4448
@<TRIPOS>BOND
     1    1    2 1
     2    1   19 1
     3    1   20 1
     4    1   21 1
     5    2    3 1
     6    2    4 1
     7    2   18 1
     8    4    5 2
     9    4    6 am
    10    6    7 1
    11    6   22 1
    12    7   12 ar
    13    7    8 ar
    14    8    9 ar
    15    8   23 1
    16    9   10 ar
    17    9   24 1
    18   10   11 ar
    19   10   25 1
    20   11   12 ar
    21   11   26 1
    22   12   13 1
    23   13   17 1
    24   13   14 1
    25   14   15 2
    26   14   27 1
    27   15   16 1
    28   16   17 2
    29   16   28 1
    30   18   29 1
    31   18   30 1
    32   18   31 1
@<TRIPOS>MOLECULE
ZINC41059038
   34    34     0     0     0
SMALL
USER_CHARGES

@<TRIPOS>ATOM
      1 C1         -0.0103    1.5266    0.0138 C.3       1 <0>        -0.1522
      2 C2          0.0108   -0.0032    0.0060 C.3       1 <0>        -0.1359
      3 C3          0.7219   -0.4971   -1.2554 C.3       1 <0>         0.1321
      4 N1          0.7421   -1.9619   -1.2628 N.am      1 <0>        -0.7409
      5 C4          1.3211   -2.6228   -2.2848 C.2       1 <0>         0.7098
      6 O1          1.7461   -2.0075   -3.2436 O.2       1 <0>        -0.5782
      7 N2          1.4290   -3.9656   -2.2441 N.am      1 <0>        -0.6369
      8 C5          0.8171   -4.7420   -1.1541 C.3       1 <0>         0.0718
      9 C6         -0.0131   -5.8725   -1.7727 C.3       1 <0>         0.0541
     10 O2          0.7995   -6.6034   -2.6941 O.3       1 <0>        -0.3859
     11 C7          1.2659   -5.8313   -3.8033 C.3       1 <0>         0.0434
     12 H1          0.4144   -5.4084   -4.3363 H         1 <0>         0.0892
     13 C8          2.1569   -4.6991   -3.2917 C.3       1 <0>         0.1054
     14 C9          2.0669   -6.7280   -4.7494 C.3       1 <0>         0.0055
     15 N3          1.1790   -7.7442   -5.3299 N.4       1 <0>        -0.6343
     16 H2          1.0122    1.9041    0.0017 H         1 <0>         0.0603
     17 H3         -0.5411    1.8871   -0.8673 H         1 <0>         0.0599
     18 H4         -0.5169    1.8785    0.9125 H         1 <0>         0.0645
     19 H5          0.5416   -0.3637    0.8871 H         1 <0>         0.0697
     20 H6         -1.0117   -0.3807    0.0181 H         1 <0>         0.0689
     21 H7          0.1911   -0.1366   -2.1365 H         1 <0>         0.0711
     22 H8          1.7444   -0.1196   -1.2675 H         1 <0>         0.0706
     23 H9          0.3387   -2.4562   -0.5321 H         1 <0>         0.3966
     24 H10         1.5976   -5.1639   -0.5209 H         1 <0>         0.0876
     25 H11         0.1715   -4.0951   -0.5601 H         1 <0>         0.0963
     26 H12        -0.3620   -6.5408   -0.9854 H         1 <0>         0.1233
     27 H13        -0.8694   -5.4497   -2.2983 H         1 <0>         0.0666
     28 H14         2.3981   -4.0239   -4.1126 H         1 <0>         0.1149
     29 H15         3.0746   -5.1166   -2.8774 H         1 <0>         0.0855
     30 H16         2.4965   -6.1223   -5.5473 H         1 <0>         0.1525
     31 H17         2.8669   -7.2185   -4.1948 H         1 <0>         0.1466
     32 H18         0.4385   -7.2901   -5.8433 H         1 <0>         0.4352
     33 H19         1.7072   -8.3355   -5.9538 H         1 <0>         0.4411
     34 H20         0.7813   -8.3048   -4.5912 H         1 <0>         0.4418
@<TRIPOS>BOND
     1    1    2 1
     2    1   16 1
     3    1   17 1
     4    1   18 1
     5    2    3 1
     6    2   19 1
     7    2   20 1
     8    3    4 1
     9    3   21 1
    10    3   22 1
    11    4    5 am
    12    4   23 1
    13    5    6 2
    14    5    7 am
    15    7   13 1
    16    7    8 1
    17    8    9 1
    18    8   24 1
    19    8   25 1
    20    9   10 1
    21    9   26 1
    22    9   27 1
    23   10   11 1
    24   11   12 1
    25   11   13 1
    26   11   14 1
    27   13   28 1
    28   13   29 1
    29   14   15 1
    30   14   30 1
    31   14   31 1
    32   15   32 1
    33   15   33 1
    34   15   34 1
@<TRIPOS>MOLECULE
ZINC51927122
   31    31     0     0     0
SMALL
USER_CHARGES

@<TRIPOS>ATOM
      1 C1         -0.0184    1.5028    0.0103 C.3       1 <0>        -0.1007
      2 C2          0.0021   -0.0041    0.0020 C.2       1 <0>         0.0306
      3 C3          0.0078   -0.7894   -1.0919 C.2       1 <0>         0.0581
      4 N1          0.0283   -2.0846   -0.6496 N.pl3     1 <0>        -0.4037
      5 C4          0.0343   -2.0456    0.7003 C.cat     1 <0>         0.2850
      6 N2          0.0236   -0.7980    1.0829 N.pl3     1 <0>        -0.4718
      7 C5          0.0412   -3.2883   -1.4845 C.3       1 <0>         0.0987
      8 C6          1.4810   -3.6154   -1.8855 C.3       1 <0>        -0.0418
      9 H1          2.0970   -3.7008   -0.9903 H         1 <0>         0.1081
     10 C7          2.0285   -2.4988   -2.7767 C.3       1 <0>        -0.1572
     11 C8          1.5083   -4.9195   -2.6403 C.2       1 <0>         0.3567
     12 N3          1.4752   -4.9191   -3.9317 N.2       1 <0>        -0.4036
     13 O1          1.5009   -6.1444   -4.6409 O.3       1 <0>        -0.4146
     14 N4          1.5685   -6.1116   -1.9533 N.pl3     1 <0>        -0.8696
     15 C9         -0.0061   -0.3305   -2.5273 C.3       1 <0>        -0.1064
     16 H2          1.0042    1.8801    0.0026 H         1 <0>         0.1009
     17 H3         -0.5455    1.8639   -0.8728 H         1 <0>         0.1056
     18 H4         -0.5286    1.8543    0.9071 H         1 <0>         0.0910
     19 H5          0.0496   -2.9046    1.3548 H         1 <0>         0.2611
     20 H6         -0.3787   -4.1237   -0.9242 H         1 <0>         0.1265
     21 H7         -0.5551   -3.1155   -2.3804 H         1 <0>         0.1312
     22 H8          1.4125   -2.4134   -3.6719 H         1 <0>         0.0844
     23 H9          2.0087   -1.5556   -2.2307 H         1 <0>         0.0642
     24 H10         3.0542   -2.7318   -3.0623 H         1 <0>         0.0788
     25 H11         1.4727   -6.0432   -5.6022 H         1 <0>         0.4085
     26 H12         1.5934   -6.1119   -0.9836 H         1 <0>         0.3963
     27 H13         1.5861   -6.9510   -2.4392 H         1 <0>         0.4149
     28 H14         1.0181   -0.2055   -2.8787 H         1 <0>         0.1073
     29 H15        -0.5127   -1.0747   -3.1418 H         1 <0>         0.0927
     30 H16        -0.5336    0.6205   -2.5996 H         1 <0>         0.1058
     31 H17         0.0285   -0.4929    2.0036 H         1 <0>         0.4631
@<TRIPOS>BOND
     1    1    2 1
     2    1   16 1
     3    1   17 1
     4    1   18 1
     5    2    6 1
     6    2    3 2
     7    3    4 1
     8    3   15 1
     9    4    5 1
    10    4    7 1
    11    5    6 2
    12    5   19 1
    13    6   31 1
    14    7    8 1
    15    7   20 1
    16    7   21 1
    17    8    9 1
    18    8   10 1
    19    8   11 1
    20   10   22 1
    21   10   23 1
    22   10   24 1
    23   11   12 2
    24   11   14 1
    25   12   13 1
    26   13   25 1
    27   14   26 1
    28   14   27 1
    29   15   28 1
    30   15   29 1
    31   15   30 1
@<TRIPOS>MOLECULE
ZINC55126550
   41    41     0     0     0
SMALL
USER_CHARGES

@<TRIPOS>ATOM
      1 C1         -0.0187    1.5258    0.0104 C.3       1 <0>        -0.1862
      2 C2          0.0021   -0.0041    0.0020 C.3       1 <0>        -0.0895
      3 H1          0.5123   -0.3556   -0.8948 H         1 <0>         0.1037
      4 C3         -1.4333   -0.5336    0.0129 C.3       1 <0>        -0.0969
      5 H2         -1.4185   -1.6235    0.0069 H         1 <0>         0.1116
      6 C4         -2.1494   -0.0402    1.2717 C.3       1 <0>        -0.1272
      7 C5         -1.4095   -0.5471    2.5112 C.3       1 <0>        -0.1140
      8 C6          0.0259   -0.0175    2.5003 C.3       1 <0>        -0.1466
      9 C7          0.7421   -0.5109    1.2415 C.3       1 <0>         0.0296
     10 H3          0.7568   -1.6008    1.2356 H         1 <0>         0.1443
     11 N1          2.1202   -0.0024    1.2311 N.4       1 <0>        -0.6361
     12 C8         -2.1622   -0.0344   -1.2080 C.2       1 <0>         0.5220
     13 O1         -1.5899    0.6751   -2.0080 O.2       1 <0>        -0.5342
     14 N2         -3.4500   -0.3764   -1.4109 N.am      1 <0>        -0.7115
     15 C9         -4.1585    0.1089   -2.5977 C.3       1 <0>         0.0987
     16 C10        -5.5723   -0.4127   -2.5870 C.2       1 <0>         0.5061
     17 O2         -5.9508   -1.1202   -1.6775 O.2       1 <0>        -0.5366
     18 N3         -6.4161   -0.0930   -3.5881 N.am      1 <0>        -0.6132
     19 C11        -7.7905   -0.6001   -3.5777 C.3       1 <0>         0.0810
     20 C12        -5.9590    0.7615   -4.6867 C.3       1 <0>         0.0672
     21 H4          1.0039    1.9031    0.0027 H         1 <0>         0.0506
     22 H5         -0.5459    1.8868   -0.8726 H         1 <0>         0.1104
     23 H6         -0.5289    1.8773    0.9072 H         1 <0>         0.0722
     24 H7         -2.1642    1.0497    1.2777 H         1 <0>         0.0818
     25 H8         -3.1720   -0.4175    1.2794 H         1 <0>         0.0864
     26 H9         -1.9196   -0.1955    3.4080 H         1 <0>         0.0917
     27 H10        -1.3947   -1.6369    2.5052 H         1 <0>         0.0795
     28 H11         0.0111    1.0724    2.5063 H         1 <0>         0.0923
     29 H12         0.5531   -0.3786    3.3834 H         1 <0>         0.0914
     30 H13         2.1065    1.0065    1.2367 H         1 <0>         0.4323
     31 H14         2.6082   -0.3367    2.0486 H         1 <0>         0.4366
     32 H15        -3.9076   -0.9439   -0.7710 H         1 <0>         0.4147
     33 H16        -4.1733    1.1988   -2.5917 H         1 <0>         0.1039
     34 H17        -3.6483   -0.2426   -3.4945 H         1 <0>         0.1040
     35 H18        -8.4345    0.1063   -3.0539 H         1 <0>         0.0615
     36 H19        -8.1412   -0.7204   -4.6028 H         1 <0>         0.0770
     37 H20        -7.8185   -1.5636   -3.0688 H         1 <0>         0.0804
     38 H21        -4.9175    1.0381   -4.5227 H         1 <0>         0.0802
     39 H22        -6.0471    0.2205   -5.6288 H         1 <0>         0.0722
     40 H23        -6.5721    1.6619   -4.7260 H         1 <0>         0.0720
     41 H24         2.5925   -0.3278    0.4010 H         1 <0>         0.4368
@<TRIPOS>BOND
     1    1    2 1
     2    1   21 1
     3    1   22 1
     4    1   23 1
     5    2    3 1
     6    2    9 1
     7    2    4 1
     8    4    5 1
     9    4    6 1
    10    4   12 1
    11    6    7 1
    12    6   24 1
    13    6   25 1
    14    7    8 1
    15    7   26 1
    16    7   27 1
    17    8    9 1
    18    8   28 1
    19    8   29 1
    20    9   10 1
    21    9   11 1
    22   11   30 1
    23   11   31 1
    24   11   41 1
    25   12   13 2
    26   12   14 am
    27   14   15 1
    28   14   32 1
    29   15   16 1
    30   15   33 1
    31   15   34 1
    32   16   17 2
    33   16   18 am
    34   18   19 1
    35   18   20 1
    36   19   35 1
    37   19   36 1
    38   19   37 1
    39   20   38 1
    40   20   39 1
    41   20   40 1
@<TRIPOS>MOLECULE
ZINC03874671
   55    57     0     0     0
SMALL
USER_CHARGES
1-[2,4-dihydroxy-6-[3,4,5-trihydroxy-6-(hydroxymethyl)tetrahydropyran-2-yl]oxy-phenyl]-3-(4-hydroxyphenyl)-propan-1-one
@<TRIPOS>ATOM
      1 C1          5.0507    6.3868   -1.2100 C.ar      1 <0>        -0.0983
      2 C2          5.0315    7.7681   -1.2056 C.ar      1 <0>        -0.1419
      3 C3          5.0360    8.4569   -0.0013 C.ar      1 <0>         0.0997
      4 C4          5.0535    7.7560    1.1959 C.ar      1 <0>        -0.1427
      5 C5          5.0665    6.3747    1.1861 C.ar      1 <0>        -0.1006
      6 C6          5.0625    5.6906   -0.0155 C.ar      1 <0>        -0.0893
      7 C7          5.0772    4.1837   -0.0232 C.3       1 <0>        -0.0753
      8 C8          3.6398    3.6596   -0.0130 C.3       1 <0>        -0.1369
      9 C9          3.6545    2.1527   -0.0207 C.2       1 <0>         0.3957
     10 O1          4.7115    1.5561   -0.0332 O.2       1 <0>        -0.4358
     11 C10         2.3962    1.4096   -0.0132 C.ar      1 <0>        -0.2421
     12 C11         1.1677    2.0970    0.0022 C.ar      1 <0>         0.2064
     13 C12        -0.0168    1.3854    0.0097 C.ar      1 <0>        -0.2208
     14 C13         0.0021   -0.0041    0.0020 C.ar      1 <0>         0.1996
     15 C14         1.2092   -0.6914   -0.0127 C.ar      1 <0>        -0.2399
     16 C15         2.4047    0.0023   -0.0204 C.ar      1 <0>         0.2142
     17 O2          3.5818   -0.6709   -0.0343 O.3       1 <0>        -0.2844
     18 C16         3.5129   -2.0982   -0.0404 C.3       1 <0>         0.2076
     19 H1          2.8986   -2.4289   -0.8779 H         1 <0>         0.1161
     20 C17         4.9232   -2.6769   -0.1818 C.3       1 <0>         0.0695
     21 H2          4.8677   -3.7645   -0.2284 H         1 <0>         0.1006
     22 C18         5.7626   -2.2572    1.0288 C.3       1 <0>         0.0837
     23 H3          5.8597   -1.1717    1.0465 H         1 <0>         0.0876
     24 C19         5.0657   -2.7303    2.3082 C.3       1 <0>         0.0906
     25 H4          5.6278   -2.3880    3.1771 H         1 <0>         0.0834
     26 C20         3.6499   -2.1496    2.3534 C.3       1 <0>         0.1023
     27 H5          3.7043   -1.0616    2.3894 H         1 <0>         0.0879
     28 O3          2.9336   -2.5526    1.1844 O.3       1 <0>        -0.3538
     29 C21         2.9262   -2.6660    3.5986 C.3       1 <0>         0.0891
     30 O4          1.6485   -2.0345    3.7032 O.3       1 <0>        -0.5650
     31 O5          4.9981   -4.1577    2.3153 O.3       1 <0>        -0.5498
     32 O6          7.0584   -2.8534    0.9418 O.3       1 <0>        -0.5603
     33 O7          5.5264   -2.1779   -1.3773 O.3       1 <0>        -0.5466
     34 O8         -1.1662   -0.6939    0.0094 O.3       1 <0>        -0.4913
     35 O9          1.1468    3.4529    0.0092 O.3       1 <0>        -0.4848
     36 O10         5.0236    9.8158    0.0057 O.3       1 <0>        -0.5007
     37 H6          5.0525    5.8502   -2.1473 H         1 <0>         0.1265
     38 H7          5.0183    8.3115   -2.1389 H         1 <0>         0.1283
     39 H8          5.0566    8.2899    2.1347 H         1 <0>         0.1282
     40 H9          5.0801    5.8286    2.1178 H         1 <0>         0.1262
     41 H10         5.6025    3.8209    0.8603 H         1 <0>         0.0778
     42 H11         5.5866    3.8299   -0.9196 H         1 <0>         0.0790
     43 H12         3.1579    3.9924   -0.8236 H         1 <0>         0.0981
     44 H13         3.1304    4.0134    0.8834 H         1 <0>         0.0931
     45 H14        -0.9603    1.9109    0.0170 H         1 <0>         0.1438
     46 H15         1.2136   -1.7714   -0.0186 H         1 <0>         0.1492
     47 H16         2.7928   -3.7450    3.5201 H         1 <0>         0.0684
     48 H17         3.5184   -2.4366    4.4844 H         1 <0>         0.0636
     49 H18         1.1329   -2.3150    4.4716 H         1 <0>         0.3835
     50 H19         5.8613   -4.5925    2.2836 H         1 <0>         0.3889
     51 H20         7.5545   -2.6024    0.1506 H         1 <0>         0.3947
     52 H21         5.0440   -2.4027   -2.1847 H         1 <0>         0.3853
     53 H22        -1.5133   -0.8891   -0.8717 H         1 <0>         0.4002
     54 H23         1.1490    3.8418    0.8946 H         1 <0>         0.4011
     55 H24         5.9034   10.2172   -0.0005 H         1 <0>         0.3908
@<TRIPOS>BOND
     1    1    6 ar
     2    1    2 ar
     3    1   37 1
     4    2    3 ar
     5    2   38 1
     6    3    4 ar
     7    3   36 1
     8    4    5 ar
     9    4   39 1
    10    5    6 ar
    11    5   40 1
    12    6    7 1
    13    7    8 1
    14    7   41 1
    15    7   42 1
    16    8    9 1
    17    8   43 1
    18    8   44 1
    19    9   10 2
    20    9   11 1
    21   11   16 ar
    22   11   12 ar
    23   12   13 ar
    24   12   35 1
    25   13   14 ar
    26   13   45 1
    27   14   15 ar
    28   14   34 1
    29   15   16 ar
    30   15   46 1
    31   16   17 1
    32   17   18 1
    33   18   19 1
    34   18   28 1
    35   18   20 1
    36   20   21 1
    37   20   22 1
    38   20   33 1
    39   22   23 1
    40   22   24 1
    41   22   32 1
    42   24   25 1
    43   24   26 1
    44   24   31 1
    45   26   27 1
    46   26   28 1
    47   26   29 1
    48   29   30 1
    49   29   47 1
    50   29   48 1
    51   30   49 1
    52   31   50 1
    53   32   51 1
    54   33   52 1
    55   34   53 1
    56   35   54 1
    57   36   55 1
@<TRIPOS>MOLECULE
ZINC08952754
   55    58     0     0     0
SMALL
USER_CHARGES
5,7-dihydroxy-3-(3,4,5-trihydroxy-6-methyl-tetrahydropyran-2-yl)oxy-2-(3,4,5-trihydroxyphenyl)-chroman-4-one
@<TRIPOS>ATOM
      1 C1          3.5530   -0.5351    2.1739 C.3       1 <0>        -0.1518
      2 C2          2.2590   -0.8738    1.4311 C.3       1 <0>         0.0464
      3 H1          1.4103   -0.4490    1.9672 H         1 <0>         0.0861
      4 C3          2.1011   -2.3943    1.3480 C.3       1 <0>         0.0910
      5 H2          2.9690   -2.8248    0.8484 H         1 <0>         0.0808
      6 C4          0.8354   -2.7255    0.5513 C.3       1 <0>         0.1264
      7 H3         -0.0378   -2.3388    1.0767 H         1 <0>         0.0833
      8 C5          0.9310   -2.0745   -0.8319 C.3       1 <0>         0.0635
      9 H4          0.0104   -2.2588   -1.3857 H         1 <0>         0.0869
     10 C6          1.1341   -0.5663   -0.6646 C.3       1 <0>         0.2127
     11 H5          1.2455   -0.1035   -1.6451 H         1 <0>         0.1162
     12 O1          2.3105   -0.3287    0.1111 O.3       1 <0>        -0.3691
     13 O2          0.0021   -0.0041    0.0020 O.3       1 <0>        -0.3594
     14 C7         -0.0173    1.4248    0.0099 C.3       1 <0>         0.0393
     15 H6          0.9209    1.7709    0.0028 H         1 <0>         0.1047
     16 C8         -0.7581    1.9310    1.2563 C.3       1 <0>         0.1512
     17 H7         -1.7722    1.5316    1.2639 H         1 <0>         0.1049
     18 O3         -0.8097    3.3572    1.2283 O.3       1 <0>        -0.2867
     19 C9         -1.2860    3.9700    0.1191 C.ar      1 <0>         0.2085
     20 C10        -1.7778    5.2609    0.2003 C.ar      1 <0>        -0.1954
     21 C11        -2.2590    5.8982   -0.9361 C.ar      1 <0>         0.2027
     22 C12        -2.2536    5.2530   -2.1669 C.ar      1 <0>        -0.2167
     23 C13        -1.7684    3.9617   -2.2702 C.ar      1 <0>         0.2256
     24 C14        -1.2846    3.3110   -1.1242 C.ar      1 <0>        -0.2916
     25 C15        -0.7730    1.9383   -1.2027 C.2       1 <0>         0.3839
     26 O4         -0.9453    1.2484   -2.1863 O.2       1 <0>        -0.4155
     27 O5         -1.7593    3.3294   -3.4699 O.3       1 <0>        -0.4794
     28 O6         -2.7396    7.1635   -0.8435 O.3       1 <0>        -0.4898
     29 C16        -0.0285    1.4765    2.4941 C.ar      1 <0>        -0.0671
     30 C17         1.0328    2.2171    2.9796 C.ar      1 <0>        -0.1130
     31 C18         1.7032    1.8054    4.1216 C.ar      1 <0>         0.0995
     32 C19         1.3135    0.6406    4.7718 C.ar      1 <0>         0.0662
     33 C20         0.2495   -0.1043    4.2772 C.ar      1 <0>         0.1085
     34 C21        -0.4189    0.3171    3.1377 C.ar      1 <0>        -0.1139
     35 O7         -0.1353   -1.2451    4.9097 O.3       1 <0>        -0.4806
     36 O8          1.9718    0.2306    5.8902 O.3       1 <0>        -0.4720
     37 O9          2.7434    2.5380    4.6019 O.3       1 <0>        -0.4798
     38 O10         2.0373   -2.6289   -1.5466 O.3       1 <0>        -0.5316
     39 O11         0.7171   -4.1421    0.4057 O.3       1 <0>        -0.5415
     40 O12         1.9912   -2.9358    2.6658 O.3       1 <0>        -0.5509
     41 H8          4.4016   -0.9597    1.6375 H         1 <0>         0.0735
     42 H9          3.6653    0.5475    2.2330 H         1 <0>         0.0691
     43 H10         3.5140   -0.9519    3.1803 H         1 <0>         0.0697
     44 H11        -1.7872    5.7746    1.1502 H         1 <0>         0.1524
     45 H12        -2.6284    5.7603   -3.0436 H         1 <0>         0.1486
     46 H13        -2.5652    2.8286   -3.6566 H         1 <0>         0.4055
     47 H14        -2.0714    7.8490   -0.9799 H         1 <0>         0.4055
     48 H15         1.3378    3.1198    2.4712 H         1 <0>         0.1424
     49 H16        -1.2458   -0.2611    2.7526 H         1 <0>         0.1416
     50 H17         0.3127   -2.0411    4.5922 H         1 <0>         0.3959
     51 H18         2.7211   -0.3544    5.7133 H         1 <0>         0.3846
     52 H19         3.6036    2.2835    4.2407 H         1 <0>         0.3891
     53 H20         2.1597   -2.2581   -2.4312 H         1 <0>         0.3834
     54 H21        -0.0611   -4.4225   -0.0952 H         1 <0>         0.3800
     55 H22         2.7595   -2.7634    3.2271 H         1 <0>         0.3760
@<TRIPOS>BOND
     1    1    2 1
     2    1   41 1
     3    1   42 1
     4    1   43 1
     5    2    3 1
     6    2   12 1
     7    2    4 1
     8    4    5 1
     9    4    6 1
    10    4   40 1
    11    6    7 1
    12    6    8 1
    13    6   39 1
    14    8    9 1
    15    8   10 1
    16    8   38 1
    17   10   11 1
    18   10   12 1
    19   10   13 1
    20   13   14 1
    21   14   15 1
    22   14   25 1
    23   14   16 1
    24   16   17 1
    25   16   18 1
    26   16   29 1
    27   18   19 1
    28   19   24 ar
    29   19   20 ar
    30   20   21 ar
    31   20   44 1
    32   21   22 ar
    33   21   28 1
    34   22   23 ar
    35   22   45 1
    36   23   24 ar
    37   23   27 1
    38   24   25 1
    39   25   26 2
    40   27   46 1
    41   28   47 1
    42   29   34 ar
    43   29   30 ar
    44   30   31 ar
    45   30   48 1
    46   31   32 ar
    47   31   37 1
    48   32   33 ar
    49   32   36 1
    50   33   34 ar
    51   33   35 1
    52   34   49 1
    53   35   50 1
    54   36   51 1
    55   37   52 1
    56   38   53 1
    57   39   54 1
    58   40   55 1
@<TRIPOS>MOLECULE
ZINC31163907
   48    49     0     0     0
SMALL
USER_CHARGES
(2R,3S,4R,5S,6R)-2-[4-hydroxy-2-(hydroxymethyl)-3-propyl-phenoxy]-6-(hydroxymethyl)tetrahydropyran-3,4,5-triol
@<TRIPOS>ATOM
      1 C1          2.4357   -0.3990    7.8163 C.3       1 <0>        -0.1511
      2 C2          1.7308    0.0818    6.5464 C.3       1 <0>        -0.1173
      3 C3          0.8563   -1.0442    5.9911 C.3       1 <0>        -0.0708
      4 C4          0.1620   -0.5707    4.7402 C.ar      1 <0>        -0.0711
      5 C5         -1.0810    0.0391    4.8254 C.ar      1 <0>         0.1208
      6 C6         -1.7198    0.4752    3.6743 C.ar      1 <0>        -0.1683
      7 C7         -1.1155    0.3076    2.4433 C.ar      1 <0>        -0.1591
      8 C8          0.1246   -0.3071    2.3576 C.ar      1 <0>         0.1110
      9 C9          0.7635   -0.7434    3.5090 C.ar      1 <0>        -0.0775
     10 C10         2.1142   -1.4054    3.4165 C.3       1 <0>         0.1372
     11 O1          3.1384   -0.4134    3.5110 O.3       1 <0>        -0.5846
     12 O2          0.7168   -0.4773    1.1454 O.3       1 <0>        -0.2951
     13 C11         0.0021   -0.0041    0.0020 C.3       1 <0>         0.2571
     14 H1         -1.0376   -0.3514    0.0941 H         1 <0>         0.1134
     15 C12         0.6933   -0.4966   -1.2721 C.3       1 <0>         0.1170
     16 H2          0.7084   -1.5953   -1.3228 H         1 <0>         0.0853
     17 C13         2.1083    0.0868   -1.3342 C.3       1 <0>         0.1010
     18 H3          2.6462   -0.2522   -2.2318 H         1 <0>         0.0650
     19 C14         2.0216    1.6150   -1.2734 C.3       1 <0>         0.0709
     20 H4          1.5381    2.0274   -2.1713 H         1 <0>         0.0687
     21 C15         1.2791    2.0260    0.0007 C.3       1 <0>         0.0676
     22 H5          1.7903    1.6517    0.8999 H         1 <0>         0.0923
     23 O3         -0.0173    1.4248    0.0099 O.3       1 <0>        -0.3674
     24 C16         1.1357    3.5487    0.0390 C.3       1 <0>         0.0942
     25 O4          0.5461    3.9406    1.2803 O.3       1 <0>        -0.5865
     26 O5          3.3393    2.1677   -1.2576 O.3       1 <0>        -0.5932
     27 O6          2.8723   -0.3931   -0.2260 O.3       1 <0>        -0.5658
     28 O7         -0.0511   -0.0698   -2.4147 O.3       1 <0>        -0.5765
     29 O8         -1.6735    0.2088    6.0375 O.3       1 <0>        -0.5072
     30 H6          3.0644    0.4105    8.2155 H         1 <0>         0.0534
     31 H7          3.0653   -1.2692    7.5791 H         1 <0>         0.0519
     32 H8          1.6842   -0.6840    8.5673 H         1 <0>         0.0521
     33 H9          1.1012    0.9520    6.7836 H         1 <0>         0.0590
     34 H10         2.4823    0.3668    5.7954 H         1 <0>         0.0739
     35 H11         1.4859   -1.9144    5.7539 H         1 <0>         0.0703
     36 H12         0.1048   -1.3292    6.7421 H         1 <0>         0.0744
     37 H13        -2.6877    0.9497    3.7406 H         1 <0>         0.1279
     38 H14        -1.6109    0.6512    1.5473 H         1 <0>         0.1328
     39 H15         2.2258   -2.1272    4.2390 H         1 <0>         0.0483
     40 H16         2.2000   -1.9305    2.4537 H         1 <0>         0.0571
     41 H17         4.1968   -0.7093    3.4631 H         1 <0>         0.4017
     42 H18         2.1282    4.0130   -0.0583 H         1 <0>         0.0540
     43 H19         0.4940    3.8776   -0.7917 H         1 <0>         0.0496
     44 H20         0.3634    5.0047    1.4907 H         1 <0>         0.4086
     45 H21         3.4779    3.2581   -1.2151 H         1 <0>         0.4108
     46 H22         3.9193   -0.0792   -0.1027 H         1 <0>         0.4133
     47 H23         0.2947   -0.3316   -3.4256 H         1 <0>         0.4222
     48 H24        -2.6592    0.6924    6.1050 H         1 <0>         0.4285
@<TRIPOS>BOND
     1    1    2 1
     2    1   30 1
     3    1   31 1
     4    1   32 1
     5    2    3 1
     6    2   33 1
     7    2   34 1
     8    3    4 1
     9    3   35 1
    10    3   36 1
    11    4    9 ar
    12    4    5 ar
    13    5    6 ar
    14    5   29 1
    15    6    7 ar
    16    6   37 1
    17    7    8 ar
    18    7   38 1
    19    8    9 ar
    20    8   12 1
    21    9   10 1
    22   10   11 1
    23   10   39 1
    24   10   40 1
    25   11   41 1
    26   12   13 1
    27   13   14 1
    28   13   23 1
    29   13   15 1
    30   15   16 1
    31   15   17 1
    32   15   28 1
    33   17   18 1
    34   17   19 1
    35   17   27 1
    36   19   20 1
    37   19   21 1
    38   19   26 1
    39   21   22 1
    40   21   23 1
    41   21   24 1
    42   24   25 1
    43   24   42 1
    44   24   43 1
    45   25   44 1
    46   26   45 1
    47   27   46 1
    48   28   47 1
    49   29   48 1
@<TRIPOS>MOLECULE
ZINC31159351
   54    57     0     0     0
SMALL
USER_CHARGES

@<TRIPOS>ATOM
      1 C1         -0.0187    1.5258    0.0104 C.3       1 <0>        -0.1500
      2 C2          0.0021   -0.0041    0.0020 C.3       1 <0>         0.0589
      3 H1         -1.0205   -0.3815    0.0098 H         1 <0>         0.0765
      4 C3          0.7191   -0.4980   -1.2572 C.3       1 <0>         0.0903
      5 H2          1.7286   -0.0879   -1.2861 H         1 <0>         0.0804
      6 C4          0.7888   -2.0279   -1.2287 C.3       1 <0>         0.1236
      7 H3         -0.2203   -2.4394   -1.2498 H         1 <0>         0.0867
      8 C5          1.4965   -2.4720    0.0552 C.3       1 <0>         0.0636
      9 H4          1.5015   -3.5606    0.1105 H         1 <0>         0.0863
     10 C6          0.7494   -1.9018    1.2638 C.3       1 <0>         0.2122
     11 H5          1.2730   -2.1790    2.1787 H         1 <0>         0.1181
     12 O1          0.6937   -0.4777    1.1594 O.3       1 <0>        -0.3647
     13 O2         -0.5782   -2.4296    1.2958 O.3       1 <0>        -0.3162
     14 C7         -1.3463   -2.1040    2.3698 C.ar      1 <0>         0.1122
     15 C8         -0.8352   -1.2896    3.3676 C.ar      1 <0>        -0.1809
     16 C9         -1.6175   -0.9592    4.4585 C.ar      1 <0>        -0.0374
     17 C10        -2.9100   -1.4399    4.5571 C.ar      1 <0>        -0.1067
     18 C11        -3.4258   -2.2531    3.5653 C.ar      1 <0>        -0.0952
     19 C12        -2.6491   -2.5831    2.4662 C.ar      1 <0>         0.0781
     20 O3         -3.1571   -3.3781    1.4868 O.3       1 <0>        -0.4833
     21 C13        -3.7582   -1.0769    5.7486 C.3       1 <0>         0.1544
     22 H6         -4.5194   -1.8423    5.8999 H         1 <0>         0.1033
     23 C14        -4.4364    0.2785    5.5011 C.3       1 <0>         0.0433
     24 H7         -5.0949    0.2114    4.6351 H         1 <0>         0.1031
     25 C15        -5.2463    0.6088    6.7420 C.2       1 <0>         0.3736
     26 O4         -6.3486    1.1117    6.6692 O.2       1 <0>        -0.4211
     27 C16        -4.6286    0.2887    8.0336 C.ar      1 <0>        -0.2922
     28 C17        -5.1740    0.7806    9.2300 C.ar      1 <0>         0.2237
     29 C18        -4.5788    0.4537   10.4352 C.ar      1 <0>        -0.2213
     30 C19        -3.4483   -0.3541   10.4568 C.ar      1 <0>         0.2012
     31 C20        -2.9009   -0.8389    9.2760 C.ar      1 <0>        -0.2021
     32 C21        -3.4790   -0.5224    8.0592 C.ar      1 <0>         0.2209
     33 O5         -2.9342   -0.9884    6.9108 O.3       1 <0>        -0.2869
     34 O6         -2.8730   -0.6720   11.6437 O.3       1 <0>        -0.4896
     35 O7         -6.2759    1.5707    9.2043 O.3       1 <0>        -0.4792
     36 O8         -3.4462    1.2852    5.2822 O.3       1 <0>        -0.5256
     37 O9          2.8409   -1.9878    0.0514 O.3       1 <0>        -0.5283
     38 O10         1.5192   -2.4944   -2.3649 O.3       1 <0>        -0.5410
     39 O11        -0.0023   -0.0731   -2.4152 O.3       1 <0>        -0.5489
     40 H8          1.0039    1.9031    0.0027 H         1 <0>         0.0697
     41 H9         -0.5459    1.8868   -0.8726 H         1 <0>         0.0768
     42 H10        -0.5289    1.8773    0.9072 H         1 <0>         0.0734
     43 H11         0.1744   -0.9134    3.2934 H         1 <0>         0.1423
     44 H12        -1.2179   -0.3244    5.2355 H         1 <0>         0.1381
     45 H13        -4.4357   -2.6276    3.6449 H         1 <0>         0.1395
     46 H14        -3.0095   -4.3229    1.6309 H         1 <0>         0.3880
     47 H15        -4.9930    0.8269   11.3602 H         1 <0>         0.1467
     48 H16        -2.0211   -1.4645    9.3075 H         1 <0>         0.1495
     49 H17        -3.2194   -1.4810   12.0445 H         1 <0>         0.4032
     50 H18        -7.1100    1.0842    9.2566 H         1 <0>         0.4035
     51 H19        -3.8102    2.1662    5.1196 H         1 <0>         0.3895
     52 H20         3.3493   -2.2323    0.8368 H         1 <0>         0.3823
     53 H21         1.6026   -3.4567   -2.4108 H         1 <0>         0.3786
     54 H22        -0.0887    0.8867   -2.4946 H         1 <0>         0.3792
@<TRIPOS>BOND
     1    1    2 1
     2    1   40 1
     3    1   41 1
     4    1   42 1
     5    2    3 1
     6    2   12 1
     7    2    4 1
     8    4    5 1
     9    4    6 1
    10    4   39 1
    11    6    7 1
    12    6    8 1
    13    6   38 1
    14    8    9 1
    15    8   10 1
    16    8   37 1
    17   10   11 1
    18   10   12 1
    19   10   13 1
    20   13   14 1
    21   14   19 ar
    22   14   15 ar
    23   15   16 ar
    24   15   43 1
    25   16   17 ar
    26   16   44 1
    27   17   18 ar
    28   17   21 1
    29   18   19 ar
    30   18   45 1
    31   19   20 1
    32   20   46 1
    33   21   22 1
    34   21   33 1
    35   21   23 1
    36   23   24 1
    37   23   25 1
    38   23   36 1
    39   25   26 2
    40   25   27 1
    41   27   32 ar
    42   27   28 ar
    43   28   29 ar
    44   28   35 1
    45   29   30 ar
    46   29   47 1
    47   30   31 ar
    48   30   34 1
    49   31   32 ar
    50   31   48 1
    51   32   33 1
    52   34   49 1
    53   35   50 1
    54   36   51 1
    55   37   52 1
    56   38   53 1
    57   39   54 1
@<TRIPOS>MOLECULE
ZINC43465421
   53    56     0     0     0
SMALL
USER_CHARGES

@<TRIPOS>ATOM
      1 C1         -0.0169    1.3929    0.0097 C.ar      1 <0>        -0.0704
      2 C2          1.1676    2.0983    0.0022 C.ar      1 <0>        -0.1308
      3 C3          2.3804    1.4240   -0.0130 C.ar      1 <0>         0.1098
      4 C4          2.4067    0.0300   -0.0212 C.ar      1 <0>         0.0793
      5 C5          1.2240   -0.6832   -0.0138 C.ar      1 <0>        -0.0905
      6 C6          0.0021   -0.0041    0.0020 C.ar      1 <0>        -0.0656
      7 C7         -1.2642   -0.7607    0.0105 C.2       1 <0>         0.2056
      8 C8         -2.4375   -0.0722    0.0203 C.2       1 <0>        -0.3039
      9 C9         -3.6621   -0.7806    0.0286 C.2       1 <0>         0.4247
     10 O1         -4.7330   -0.1953    0.0371 O.2       1 <0>        -0.4454
     11 C10        -3.5943   -2.2519    0.0260 C.ar      1 <0>        -0.2570
     12 C11        -2.3291   -2.8649    0.0156 C.ar      1 <0>         0.1846
     13 O2         -1.2147   -2.1020    0.0028 O.3       1 <0>        -0.2165
     14 C12        -2.2409   -4.2481    0.0130 C.ar      1 <0>        -0.1736
     15 C13        -3.3936   -5.0178    0.0201 C.ar      1 <0>         0.1766
     16 C14        -4.6495   -4.4142    0.0304 C.ar      1 <0>         0.0008
     17 C15        -4.7561   -3.0325    0.0332 C.ar      1 <0>         0.2300
     18 O3         -5.9785   -2.4403    0.0437 O.3       1 <0>        -0.4489
     19 O4         -5.7732   -5.1829    0.0373 O.3       1 <0>        -0.2884
     20 C16        -6.2993   -5.5514    1.3138 C.3       1 <0>         0.2266
     21 H1         -5.5007   -5.9632    1.9310 H         1 <0>         0.0617
     22 C17        -7.3961   -6.6034    1.1296 C.3       1 <0>         0.0619
     23 H2         -8.1757   -6.2067    0.4792 H         1 <0>         0.0865
     24 C18        -7.9961   -6.9489    2.4960 C.3       1 <0>         0.0866
     25 H3         -7.2280   -7.3915    3.1301 H         1 <0>         0.0766
     26 C19        -8.5235   -5.6673    3.1485 C.3       1 <0>         0.0897
     27 H4         -9.3258   -5.2517    2.5389 H         1 <0>         0.0809
     28 C20        -7.3831   -4.6515    3.2548 C.3       1 <0>         0.1095
     29 H5         -6.5988   -5.0514    3.8975 H         1 <0>         0.0779
     30 O5         -6.8495   -4.3981    1.9535 O.3       1 <0>        -0.3584
     31 C21        -7.9156   -3.3470    3.8510 C.3       1 <0>         0.0924
     32 O6         -6.8309   -2.4401    4.0583 O.3       1 <0>        -0.5640
     33 O7         -9.0215   -5.9662    4.4541 O.3       1 <0>        -0.5500
     34 O8         -9.0691   -7.8772    2.3260 O.3       1 <0>        -0.5542
     35 O9         -6.8362   -7.7793    0.5415 O.3       1 <0>        -0.5548
     36 O10        -3.2981   -6.3728    0.0165 O.3       1 <0>        -0.4758
     37 O11         3.5971   -0.6274   -0.0370 O.3       1 <0>        -0.4829
     38 O12         3.5447    2.1239   -0.0204 O.3       1 <0>        -0.4847
     39 H6         -0.9593    1.9201    0.0260 H         1 <0>         0.1453
     40 H7          1.1515    3.1781    0.0078 H         1 <0>         0.1468
     41 H8          1.2430   -1.7630   -0.0205 H         1 <0>         0.1467
     42 H9         -2.4341    1.0078    0.0222 H         1 <0>         0.1659
     43 H10        -1.2728   -4.7268    0.0050 H         1 <0>         0.1593
     44 H11        -6.3392   -2.2670   -0.8366 H         1 <0>         0.4005
     45 H12        -8.6358   -2.9012    3.1648 H         1 <0>         0.0575
     46 H13        -8.4024   -3.5550    4.8038 H         1 <0>         0.0753
     47 H14        -7.0955   -1.5899    4.4351 H         1 <0>         0.3839
     48 H15        -9.7447   -6.6082    4.4618 H         1 <0>         0.3946
     49 H16        -8.8063   -8.7105    1.9116 H         1 <0>         0.3954
     50 H17        -6.4341   -7.6321   -0.3256 H         1 <0>         0.3966
     51 H18        -3.2637   -6.7670    0.8988 H         1 <0>         0.4000
     52 H19         3.9503   -0.8226    0.8417 H         1 <0>         0.3916
     53 H20         3.8902    2.3217    0.8608 H         1 <0>         0.3947
@<TRIPOS>BOND
     1    1    6 ar
     2    1    2 ar
     3    1   39 1
     4    2    3 ar
     5    2   40 1
     6    3    4 ar
     7    3   38 1
     8    4    5 ar
     9    4   37 1
    10    5    6 ar
    11    5   41 1
    12    6    7 1
    13    7   13 1
    14    7    8 2
    15    8    9 1
    16    8   42 1
    17    9   10 2
    18    9   11 1
    19   11   17 ar
    20   11   12 ar
    21   12   13 1
    22   12   14 ar
    23   14   15 ar
    24   14   43 1
    25   15   16 ar
    26   15   36 1
    27   16   17 ar
    28   16   19 1
    29   17   18 1
    30   18   44 1
    31   19   20 1
    32   20   21 1
    33   20   30 1
    34   20   22 1
    35   22   23 1
    36   22   24 1
    37   22   35 1
    38   24   25 1
    39   24   26 1
    40   24   34 1
    41   26   27 1
    42   26   28 1
    43   26   33 1
    44   28   29 1
    45   28   30 1
    46   28   31 1
    47   31   32 1
    48   31   45 1
    49   31   46 1
    50   32   47 1
    51   33   48 1
    52   34   49 1
    53   35   50 1
    54   36   51 1
    55   37   52 1
    56   38   53 1
@<TRIPOS>MOLECULE
ZINC05415683
   60    62     0     0     0
SMALL
USER_CHARGES
4-(2-aminoacetyl)-1-cyclohexylcarbonyl-N-(2-oxo-3-piperidyl)-piperazine-2-carboxamide
@<TRIPOS>ATOM
      1 C1         -5.0758   -3.4735    0.5062 C.3       1 <0>        -0.1243
      2 C2         -3.9455   -3.7265   -0.4935 C.3       1 <0>        -0.1202
      3 C3         -2.8032   -2.7429   -0.2314 C.3       1 <0>        -0.0976
      4 C4         -3.3162   -1.3106   -0.3934 C.3       1 <0>        -0.0956
      5 C5         -4.4465   -1.0576    0.6063 C.3       1 <0>        -0.1181
      6 C6         -5.5888   -2.0412    0.3442 C.3       1 <0>        -0.1171
      7 C7         -2.1911   -0.3419   -0.1354 C.2       1 <0>         0.4904
      8 O1         -1.1222   -0.7477    0.2692 O.2       1 <0>        -0.4286
      9 N1         -2.3726    0.9756   -0.3541 N.am      1 <0>        -0.6180
     10 C8         -3.6997    1.4993   -0.7068 C.3       1 <0>         0.0879
     11 C9         -3.5845    2.2817   -2.0209 C.3       1 <0>         0.0760
     12 N2         -2.4588    3.2202   -1.9115 N.am      1 <0>        -0.5845
     13 C10        -1.1317    2.6964   -1.5588 C.3       1 <0>         0.1090
     14 C11        -1.2470    1.9141   -0.2447 C.3       1 <0>         0.1207
     15 H1         -1.4231    2.6061    0.5788 H         1 <0>         0.0888
     16 C12         0.0276    1.1487    0.0017 C.2       1 <0>         0.5405
     17 O2          0.4134    0.3356   -0.8113 O.2       1 <0>        -0.4975
     18 N3          0.7415    1.3717    1.1229 N.am      1 <0>        -0.7127
     19 C13         1.9837    0.6319    1.3595 C.3       1 <0>         0.1450
     20 H2          2.4936    0.4674    0.4103 H         1 <0>         0.1158
     21 C14         2.8894    1.4433    2.2892 C.3       1 <0>        -0.1303
     22 C15         4.0473    0.5459    2.7423 C.3       1 <0>        -0.1346
     23 C16         3.4885   -0.5584    3.6405 C.3       1 <0>         0.1072
     24 N4          2.3613   -1.2195    2.9948 N.am      1 <0>        -0.7268
     25 C17         1.6628   -0.6938    1.9878 C.2       1 <0>         0.4869
     26 O3          0.7179   -1.3198    1.5564 O.2       1 <0>        -0.4898
     27 C18        -2.6404    4.5376   -2.1303 C.2       1 <0>         0.4958
     28 O4         -1.7039    5.3026   -2.0366 O.2       1 <0>        -0.5272
     29 C19        -4.0070    5.0602   -2.4912 C.3       1 <0>        -0.0244
     30 H3         -5.8896   -4.1742    0.3196 H         1 <0>         0.0654
     31 H4         -4.7017   -3.6129    1.5205 H         1 <0>         0.0638
     32 H5         -4.3196   -3.5871   -1.5077 H         1 <0>         0.0613
     33 H6         -3.5800   -4.7469   -0.3780 H         1 <0>         0.0680
     34 H7         -1.9980   -2.9232   -0.9436 H         1 <0>         0.0690
     35 H8         -2.4291   -2.8824    0.7828 H         1 <0>         0.0732
     36 H9         -3.6903   -1.1712   -1.4077 H         1 <0>         0.0904
     37 H10        -4.0724   -1.1970    1.6205 H         1 <0>         0.0701
     38 H11        -4.8119   -0.0372    0.4908 H         1 <0>         0.0677
     39 H12        -5.9628   -1.9017   -0.6700 H         1 <0>         0.0636
     40 H13        -6.3940   -1.8609    1.0564 H         1 <0>         0.0671
     41 H14        -4.0535    2.1615    0.0834 H         1 <0>         0.0779
     42 H15        -4.4000    0.6736   -0.8329 H         1 <0>         0.1216
     43 H16        -4.5063    2.8353   -2.1991 H         1 <0>         0.0986
     44 H17        -3.4067    1.5918   -2.8459 H         1 <0>         0.0978
     45 H18        -0.4338    3.5240   -1.4319 H         1 <0>         0.1145
     46 H19        -0.7779    2.0342   -2.3490 H         1 <0>         0.1008
     47 H20         0.4329    2.0219    1.7731 H         1 <0>         0.3979
     48 H21         3.2828    2.3083    1.7553 H         1 <0>         0.0838
     49 H22         2.3207    1.7751    3.1579 H         1 <0>         0.0758
     50 H23         4.5275    0.1006    1.8710 H         1 <0>         0.0773
     51 H24         4.7742    1.1391    3.2972 H         1 <0>         0.0932
     52 H25         4.2704   -1.2913    3.8393 H         1 <0>         0.0798
     53 H26         3.1553   -0.1226    4.5824 H         1 <0>         0.0654
     54 H27         2.1031   -2.0970    3.3179 H         1 <0>         0.3995
     55 H28        -4.3429    4.5909   -3.4159 H         1 <0>         0.1663
     56 H29        -4.7084    4.8272   -1.6899 H         1 <0>         0.1632
     57 H30        -3.2505    6.7614   -3.3696 H         1 <0>         0.4456
     58 H31        -4.8462    6.8907   -2.9194 H         1 <0>         0.4480
     59 N5         -3.9343    6.5229   -2.6532 N.4       1 <0>        -0.6304
     60 H32        -3.6487    6.9474   -1.7630 H         1 <0>         0.4468
@<TRIPOS>BOND
     1    1    6 1
     2    1    2 1
     3    1   30 1
     4    1   31 1
     5    2    3 1
     6    2   32 1
     7    2   33 1
     8    3    4 1
     9    3   34 1
    10    3   35 1
    11    4    5 1
    12    4    7 1
    13    4   36 1
    14    5    6 1
    15    5   37 1
    16    5   38 1
    17    6   39 1
    18    6   40 1
    19    7    8 2
    20    7    9 am
    21    9   14 1
    22    9   10 1
    23   10   11 1
    24   10   41 1
    25   10   42 1
    26   11   12 1
    27   11   43 1
    28   11   44 1
    29   12   13 1
    30   12   27 am
    31   13   14 1
    32   13   45 1
    33   13   46 1
    34   14   15 1
    35   14   16 1
    36   16   17 2
    37   16   18 am
    38   18   19 1
    39   18   47 1
    40   19   20 1
    41   19   25 1
    42   19   21 1
    43   21   22 1
    44   21   48 1
    45   21   49 1
    46   22   23 1
    47   22   50 1
    48   22   51 1
    49   23   24 1
    50   23   52 1
    51   23   53 1
    52   24   25 am
    53   24   54 1
    54   25   26 2
    55   27   28 2
    56   27   29 1
    57   29   55 1
    58   29   56 1
    59   29   59 1
    60   57   59 1
    61   58   59 1
    62   59   60 1
@<TRIPOS>MOLECULE
ZINC30499841
   58    59     0     0     0
SMALL
USER_CHARGES
(2R)-N-(cyclopentylcarbamoyl)-2-[[(1R)-1-[4-(propanoylamino)phenyl]ethyl]amino]propanamide
@<TRIPOS>ATOM
      1 C1          8.7326    1.5313   -0.2138 C.3       1 <0>        -0.1437
      2 C2          7.7585    2.6994   -0.0483 C.3       1 <0>        -0.1450
      3 C3          6.3433    2.1917   -0.1502 C.2       1 <0>         0.5168
      4 O1          6.1344    1.0116   -0.3367 O.2       1 <0>        -0.5166
      5 N1          5.3098    3.0489   -0.0340 N.am      1 <0>        -0.6952
      6 C4          3.9973    2.5642   -0.0178 C.ar      1 <0>         0.1897
      7 C5          3.7184    1.3297    0.5537 C.ar      1 <0>        -0.1189
      8 C6          2.4217    0.8543    0.5685 C.ar      1 <0>        -0.0630
      9 C7          1.4018    1.6060    0.0145 C.ar      1 <0>        -0.1683
     10 C8          1.6770    2.8333   -0.5601 C.ar      1 <0>        -0.0955
     11 C9          2.9707    3.3169   -0.5730 C.ar      1 <0>        -0.1394
     12 C10        -0.0117    1.0838    0.0315 C.3       1 <0>         0.0946
     13 H1         -0.0020   -0.0105    0.1429 H         1 <0>         0.1414
     14 C11        -0.7855    1.7437    1.1745 C.3       1 <0>        -0.1796
     15 N2         -0.6647    1.3967   -1.2467 N.4       1 <0>        -0.5342
     16 C12        -1.7561    0.4537   -1.5251 C.3       1 <0>         0.0126
     17 H2         -2.2349    0.2043   -0.5667 H         1 <0>         0.1663
     18 C13        -1.1890   -0.7987   -2.1966 C.3       1 <0>        -0.1817
     19 C14        -2.7604    1.1039   -2.4414 C.2       1 <0>         0.5183
     20 O2         -2.5844    2.2405   -2.8246 O.2       1 <0>        -0.4602
     21 N3         -3.8542    0.4218   -2.8348 N.am      1 <0>        -0.6895
     22 C15        -4.7524    1.0034   -3.6543 C.2       1 <0>         0.6939
     23 O3         -4.5760    2.1428   -4.0385 O.2       1 <0>        -0.5249
     24 N4         -5.8462    0.3213   -4.0477 N.am      1 <0>        -0.7367
     25 C16        -6.8226    0.9534   -4.9385 C.3       1 <0>         0.1535
     26 C17        -7.8697    1.7270   -4.1109 C.3       1 <0>        -0.1372
     27 C18        -9.1978    1.5058   -4.8765 C.3       1 <0>        -0.1268
     28 C19        -9.0793    0.0355   -5.3489 C.3       1 <0>        -0.1212
     29 C20        -7.5916   -0.1221   -5.7256 C.3       1 <0>        -0.1253
     30 H3          9.7656    1.9020   -0.1394 H         1 <0>         0.0696
     31 H4          8.5807    1.0639   -1.1979 H         1 <0>         0.0637
     32 H5          8.5518    0.7883    0.5769 H         1 <0>         0.0638
     33 H6          7.9104    3.1668    0.9358 H         1 <0>         0.1023
     34 H7          7.9393    3.4425   -0.8390 H         1 <0>         0.1010
     35 H8          5.4981    4.1295    0.0481 H         1 <0>         0.4440
     36 H9          4.5146    0.7418    0.9859 H         1 <0>         0.1451
     37 H10         2.2041   -0.1057    1.0129 H         1 <0>         0.1356
     38 H11         0.8790    3.4160   -0.9959 H         1 <0>         0.1253
     39 H12         3.1844    4.2774   -1.0182 H         1 <0>         0.1380
     40 H13        -1.8173    1.3625    1.1869 H         1 <0>         0.0800
     41 H14        -0.7990    2.8337    1.0268 H         1 <0>         0.0859
     42 H15        -0.2965    1.5094    2.1316 H         1 <0>         0.1103
     43 H16        -1.0797    2.4146   -1.2069 H         1 <0>         0.4539
     44 H17        -2.0062   -1.5049   -2.4051 H         1 <0>         0.1110
     45 H18        -0.4559   -1.2733   -1.5277 H         1 <0>         0.1009
     46 H19        -0.6972   -0.5182   -3.1397 H         1 <0>         0.0929
     47 H20        -4.0138   -0.6095   -2.4871 H         1 <0>         0.4419
     48 H21        -6.0058   -0.7100   -3.7000 H         1 <0>         0.4179
     49 H22        -6.2319    1.6105   -5.5937 H         1 <0>         0.0942
     50 H23        -7.9076    1.3160   -3.0913 H         1 <0>         0.0694
     51 H24        -7.5903    2.7900   -4.0676 H         1 <0>         0.0711
     52 H25       -10.0455    1.6657   -4.1940 H         1 <0>         0.0723
     53 H26        -9.2616    2.2170   -5.7132 H         1 <0>         0.0726
     54 H27        -9.3711   -0.6376   -4.5293 H         1 <0>         0.0700
     55 H28        -9.7429   -0.1273   -6.2110 H         1 <0>         0.0740
     56 H29        -7.4413    0.0350   -6.8039 H         1 <0>         0.0807
     57 H30        -7.2193   -1.1184   -5.4448 H         1 <0>         0.0740
     58 H31         0.0727    1.3329   -2.0605 H         1 <0>         0.4544
@<TRIPOS>BOND
     1    1    2 1
     2    1   30 1
     3    1   31 1
     4    1   32 1
     5    2    3 1
     6    2   33 1
     7    2   34 1
     8    3    4 2
     9    3    5 am
    10    5    6 1
    11    5   35 1
    12    6   11 ar
    13    6    7 ar
    14    7    8 ar
    15    7   36 1
    16    8    9 ar
    17    8   37 1
    18    9   10 ar
    19    9   12 1
    20   10   11 ar
    21   10   38 1
    22   11   39 1
    23   12   13 1
    24   12   14 1
    25   12   15 1
    26   14   40 1
    27   14   41 1
    28   14   42 1
    29   15   16 1
    30   15   43 1
    31   15   58 1
    32   16   17 1
    33   16   18 1
    34   16   19 1
    35   18   44 1
    36   18   45 1
    37   18   46 1
    38   19   20 2
    39   19   21 am
    40   21   22 am
    41   21   47 1
    42   22   23 2
    43   22   24 am
    44   24   25 1
    45   24   48 1
    46   25   29 1
    47   25   26 1
    48   25   49 1
    49   26   27 1
    50   26   50 1
    51   26   51 1
    52   27   28 1
    53   27   52 1
    54   27   53 1
    55   28   29 1
    56   28   54 1
    57   28   55 1
    58   29   56 1
    59   29   57 1
@<TRIPOS>MOLECULE
ZINC41488538
   58    59     0     0     0
SMALL
USER_CHARGES

@<TRIPOS>ATOM
      1 C1         -0.1920    3.1295    0.1578 C.3       1 <0>        -0.1280
      2 C2          0.2358    1.7054   -0.0869 C.ar      1 <0>        -0.0366
      3 C3          0.1443    1.1572   -1.3663 C.ar      1 <0>        -0.1208
      4 C4          0.5430   -0.1625   -1.5853 C.ar      1 <0>        -0.0860
      5 C5          1.0254   -0.9208   -0.5376 C.ar      1 <0>        -0.1131
      6 C6          1.1158   -0.3782    0.7301 C.ar      1 <0>        -0.0988
      7 C7          0.7271    0.9373    0.9577 C.ar      1 <0>         0.1180
      8 N1          0.8263    1.4835    2.2403 N.am      1 <0>        -0.6253
      9 C8          0.8332    0.6748    3.3184 C.2       1 <0>         0.5011
     10 O1          0.6709   -0.5203    3.1817 O.2       1 <0>        -0.5004
     11 C9          1.0406    1.2491    4.6814 C.2       1 <0>         0.5037
     12 O2          1.2030    2.4440    4.8181 O.2       1 <0>        -0.4804
     13 N2          1.0476    0.4404    5.7596 N.am      1 <0>        -0.7190
     14 C10         1.2511    1.0038    7.0965 C.3       1 <0>         0.1398
     15 C11         1.3361   -0.1131    8.1047 C.ar      1 <0>        -0.0939
     16 C12         0.2215   -0.4635    8.8438 C.ar      1 <0>        -0.0885
     17 C13         0.2994   -1.4878    9.7684 C.ar      1 <0>        -0.0842
     18 C14         1.4919   -2.1625    9.9538 C.ar      1 <0>        -0.0996
     19 C15         2.6059   -1.8128    9.2143 C.ar      1 <0>        -0.0908
     20 C16         2.5268   -0.7910    8.2863 C.ar      1 <0>        -0.1390
     21 C17         3.7401   -0.4133    7.4761 C.3       1 <0>         0.0297
     22 N3          3.6665   -1.0542    6.1564 N.4       1 <0>        -0.3875
     23 C18         3.7542   -2.5121    6.3144 C.3       1 <0>        -0.0585
     24 C19         4.7799   -0.5844    5.3211 C.3       1 <0>         0.0188
     25 C20         4.7034   -1.2520    3.9466 C.3       1 <0>        -0.1855
     26 C21         4.6886    0.9340    5.1565 C.3       1 <0>        -0.1857
     27 C22        -0.3737    1.9712   -2.4867 C.2       1 <0>         0.5615
     28 O3         -0.6233    3.1488   -2.3178 O.2       1 <0>        -0.5280
     29 N4         -0.5692    1.4075   -3.6952 N.am      1 <0>        -0.8475
     30 H1          0.6187    3.8046   -0.1160 H         1 <0>         0.0843
     31 H2         -1.0712    3.3537   -0.4463 H         1 <0>         0.1062
     32 H3         -0.4331    3.2603    1.2127 H         1 <0>         0.0544
     33 H4          0.4736   -0.5904   -2.5745 H         1 <0>         0.1335
     34 H5          1.3330   -1.9417   -0.7092 H         1 <0>         0.1377
     35 H6          1.4934   -0.9766    1.5460 H         1 <0>         0.1499
     36 H7          0.8901    2.4446    2.3545 H         1 <0>         0.4279
     37 H8          0.9179   -0.5147    5.6503 H         1 <0>         0.4094
     38 H9          2.1773    1.5781    7.1116 H         1 <0>         0.0932
     39 H10         0.4147    1.6564    7.3469 H         1 <0>         0.1031
     40 H11        -0.7100    0.0635    8.6990 H         1 <0>         0.1404
     41 H12        -0.5711   -1.7610   10.3464 H         1 <0>         0.1411
     42 H13         1.5530   -2.9624   10.6768 H         1 <0>         0.1407
     43 H14         3.5375   -2.3396    9.3593 H         1 <0>         0.1370
     44 H15         3.7721    0.6693    7.3530 H         1 <0>         0.1393
     45 H16         4.6401   -0.7470    7.9925 H         1 <0>         0.1425
     46 H17         4.6709   -2.7653    6.8471 H         1 <0>         0.1269
     47 H18         2.8943   -2.8684    6.8815 H         1 <0>         0.1238
     48 H19         3.7626   -2.9842    5.3320 H         1 <0>         0.1286
     49 H20         5.7257   -0.8419    5.7979 H         1 <0>         0.1430
     50 H21         4.7684   -2.3337    4.0639 H         1 <0>         0.0864
     51 H22         3.7576   -0.9944    3.4698 H         1 <0>         0.0772
     52 H23         5.5295   -0.9033    3.3268 H         1 <0>         0.1094
     53 H24         4.7431    1.4096    6.1358 H         1 <0>         0.0841
     54 H25         5.5147    1.2826    4.5368 H         1 <0>         0.1116
     55 H26         3.7428    1.1915    4.6797 H         1 <0>         0.0717
     56 H27        -0.3700    0.4678   -3.8299 H         1 <0>         0.4017
     57 H28        -0.9090    1.9415   -4.4302 H         1 <0>         0.4102
     58 H29         2.7911   -0.8158    5.7150 H         1 <0>         0.4095
@<TRIPOS>BOND
     1    1    2 1
     2    1   30 1
     3    1   31 1
     4    1   32 1
     5    2    7 ar
     6    2    3 ar
     7    3    4 ar
     8    3   27 1
     9    4    5 ar
    10    4   33 1
    11    5    6 ar
    12    5   34 1
    13    6    7 ar
    14    6   35 1
    15    7    8 1
    16    8    9 am
    17    8   36 1
    18    9   10 2
    19    9   11 1
    20   11   12 2
    21   11   13 am
    22   13   14 1
    23   13   37 1
    24   14   15 1
    25   14   38 1
    26   14   39 1
    27   15   20 ar
    28   15   16 ar
    29   16   17 ar
    30   16   40 1
    31   17   18 ar
    32   17   41 1
    33   18   19 ar
    34   18   42 1
    35   19   20 ar
    36   19   43 1
    37   20   21 1
    38   21   22 1
    39   21   44 1
    40   21   45 1
    41   22   23 1
    42   22   24 1
    43   22   58 1
    44   23   46 1
    45   23   47 1
    46   23   48 1
    47   24   25 1
    48   24   26 1
    49   24   49 1
    50   25   50 1
    51   25   51 1
    52   25   52 1
    53   26   53 1
    54   26   54 1
    55   26   55 1
    56   27   28 2
    57   27   29 am
    58   29   56 1
    59   29   57 1
@<TRIPOS>MOLECULE
ZINC49789951
   56    57     0     0     0
SMALL
USER_CHARGES

@<TRIPOS>ATOM
      1 C1         -1.8319    1.4356    1.4486 C.3       1 <0>        -0.0546
      2 N1         -1.9460   -0.0202    1.2882 N.4       1 <0>        -0.3881
      3 C2         -3.3443   -0.4261    1.4832 C.3       1 <0>        -0.0552
      4 C3         -1.5097   -0.3997   -0.0621 C.3       1 <0>         0.0802
      5 H1         -2.1177    0.1227   -0.8007 H         1 <0>         0.1680
      6 C4         -1.6715   -1.9102   -0.2447 C.3       1 <0>         0.1198
      7 N2         -0.9636   -2.6105    0.8299 N.am      1 <0>        -0.7565
      8 C5         -1.0533   -3.9513    0.9338 C.2       1 <0>         0.7237
      9 O1         -1.7217   -4.5796    0.1358 O.2       1 <0>        -0.5392
     10 N3         -0.4020   -4.5956    1.9223 N.am      1 <0>        -0.5491
     11 N4          0.3681   -3.8717    2.8419 N.pl3     1 <0>        -0.4930
     12 C6          1.0194   -4.5160    3.8304 C.2       1 <0>         0.5581
     13 S1          1.9605   -3.6314    4.9540 S.2       1 <0>        -0.5695
     14 N5          0.9297   -5.8568    3.9343 N.pl3     1 <0>        -0.6658
     15 C7          1.6376   -6.5571    5.0088 C.3       1 <0>         0.1342
     16 C8          3.0710   -6.9059    4.5577 C.3       1 <0>        -0.1306
     17 C9          3.3395   -8.2958    5.1862 C.3       1 <0>        -0.1255
     18 C10         1.9697   -9.0050    5.0452 C.3       1 <0>        -0.1268
     19 C11         0.9374   -7.8918    5.3188 C.3       1 <0>        -0.1335
     20 C12        -0.0620   -0.0237   -0.2465 C.ar      1 <0>        -0.1789
     21 C13         0.7701    0.0820    0.8515 C.ar      1 <0>        -0.1045
     22 C14         2.0980    0.4274    0.6831 C.ar      1 <0>        -0.1292
     23 C15         2.5972    0.6674   -0.5841 C.ar      1 <0>        -0.0495
     24 C16         1.7695    0.5626   -1.6849 C.ar      1 <0>        -0.1889
     25 C17         0.4376    0.2109   -1.5190 C.ar      1 <0>         0.1651
     26 O2         -0.3774    0.1017   -2.6010 O.3       1 <0>        -0.3170
     27 C18         0.2052    0.3576   -3.8805 C.3       1 <0>         0.0222
     28 H2         -2.1557    1.7172    2.4506 H         1 <0>         0.1299
     29 H3         -0.7944    1.7368    1.3040 H         1 <0>         0.1279
     30 H4         -2.4609    1.9329    0.7103 H         1 <0>         0.1283
     31 H5         -3.9695    0.0499    0.7278 H         1 <0>         0.1310
     32 H6         -3.4244   -1.5093    1.3912 H         1 <0>         0.1244
     33 H7         -3.6765   -0.1202    2.4752 H         1 <0>         0.1314
     34 H8         -2.7299   -2.1688   -0.2114 H         1 <0>         0.1081
     35 H9         -1.2552   -2.2065   -1.2074 H         1 <0>         0.1185
     36 H10        -0.4304   -2.1093    1.4665 H         1 <0>         0.3850
     37 H11        -0.4666   -5.5606    1.9971 H         1 <0>         0.4388
     38 H12         0.4327   -2.9067    2.7671 H         1 <0>         0.4373
     39 H13         0.3965   -6.3580    3.2977 H         1 <0>         0.3935
     40 H14         1.6679   -5.9348    5.9032 H         1 <0>         0.1256
     41 H15         3.1258   -6.9618    3.4705 H         1 <0>         0.0670
     42 H16         3.7803   -6.1713    4.9390 H         1 <0>         0.0869
     43 H17         4.1098   -8.8293    4.6294 H         1 <0>         0.0743
     44 H18         3.6177   -8.1980    6.2356 H         1 <0>         0.0763
     45 H19         1.8467   -9.4000    4.0368 H         1 <0>         0.0676
     46 H20         1.8754   -9.8024    5.7824 H         1 <0>         0.0755
     47 H21         0.6286   -7.9176    6.3639 H         1 <0>         0.0861
     48 H22         0.0709   -8.0184    4.6698 H         1 <0>         0.0685
     49 H23         0.3826   -0.1050    1.8421 H         1 <0>         0.1178
     50 H24         2.7467    0.5102    1.5426 H         1 <0>         0.1427
     51 H25         3.6349    0.9374   -0.7130 H         1 <0>         0.1416
     52 H26         2.1598    0.7502   -2.6743 H         1 <0>         0.1441
     53 H27         1.0203   -0.3446   -4.0557 H         1 <0>         0.0650
     54 H28        -0.5518    0.2362   -4.6553 H         1 <0>         0.1127
     55 H29         0.5915    1.3765   -3.9066 H         1 <0>         0.0652
     56 H30        -1.3638   -0.4805    1.9717 H         1 <0>         0.4130
@<TRIPOS>BOND
     1    1    2 1
     2    1   28 1
     3    1   29 1
     4    1   30 1
     5    2    3 1
     6    2    4 1
     7    2   56 1
     8    3   31 1
     9    3   32 1
    10    3   33 1
    11    4    5 1
    12    4    6 1
    13    4   20 1
    14    6    7 1
    15    6   34 1
    16    6   35 1
    17    7    8 am
    18    7   36 1
    19    8    9 2
    20    8   10 am
    21   10   11 1
    22   10   37 1
    23   11   12 1
    24   11   38 1
    25   12   13 2
    26   12   14 1
    27   14   15 1
    28   14   39 1
    29   15   19 1
    30   15   16 1
    31   15   40 1
    32   16   17 1
    33   16   41 1
    34   16   42 1
    35   17   18 1
    36   17   43 1
    37   17   44 1
    38   18   19 1
    39   18   45 1
    40   18   46 1
    41   19   47 1
    42   19   48 1
    43   20   25 ar
    44   20   21 ar
    45   21   22 ar
    46   21   49 1
    47   22   23 ar
    48   22   50 1
    49   23   24 ar
    50   23   51 1
    51   24   25 ar
    52   24   52 1
    53   25   26 1
    54   26   27 1
    55   27   53 1
    56   27   54 1
    57   27   55 1
@<TRIPOS>MOLECULE
ZINC63375124
   62    64     0     0     0
SMALL
USER_CHARGES

@<TRIPOS>ATOM
      1 C1         -0.0225    1.8097    0.0120 C.3       1 <0>        -0.1257
      2 S1          0.0021   -0.0041    0.0020 S.3       1 <0>        -0.2241
      3 C2         -1.7518   -0.4668    0.0163 C.3       1 <0>        -0.1206
      4 C3         -1.8771   -1.9917    0.0093 C.3       1 <0>        -0.1248
      5 C4         -3.3564   -2.3820    0.0213 C.3       1 <0>         0.0092
      6 H1         -3.8661   -1.9002   -0.8131 H         1 <0>         0.1681
      7 C5         -3.4823   -3.8780   -0.1094 C.2       1 <0>         0.5041
      8 O1         -3.6817   -4.5581    0.8749 O.2       1 <0>        -0.5206
      9 N1         -3.3732   -4.4603   -1.3200 N.am      1 <0>        -0.5827
     10 C6         -3.1255   -3.6504   -2.5206 C.3       1 <0>         0.0939
     11 C7         -4.1978   -3.9762   -3.5650 C.3       1 <0>        -0.1188
     12 C8         -4.2161   -5.4855   -3.8177 C.3       1 <0>        -0.1051
     13 C9         -4.5673   -6.2174   -2.5203 C.3       1 <0>        -0.1282
     14 C10        -3.4936   -5.9176   -1.4633 C.3       1 <0>         0.1113
     15 C11        -5.2466   -5.8059   -4.8696 C.2       1 <0>         0.5141
     16 O2         -5.9016   -4.9152   -5.3680 O.2       1 <0>        -0.5303
     17 N2         -5.4402   -7.0823   -5.2565 N.am      1 <0>        -0.7050
     18 C12        -6.4420   -7.3938   -6.2792 C.3       1 <0>         0.0834
     19 H2         -6.4747   -6.5885   -7.0129 H         1 <0>         0.0938
     20 C13        -6.0691   -8.7039   -6.9760 C.3       1 <0>        -0.0926
     21 C14        -4.7754   -8.5226   -7.7274 C.2       1 <0>         0.1016
     22 C15        -3.5319   -8.8272   -7.2908 C.ar      1 <0>        -0.1949
     23 C16        -3.0309   -9.3955   -6.0337 C.ar      1 <0>        -0.0013
     24 C17        -1.7006   -9.5891   -5.8855 C.ar      1 <0>        -0.1636
     25 C18        -0.7906   -9.2609   -6.8998 C.ar      1 <0>         0.0468
     26 C19        -1.1748   -8.7351   -8.0821 C.ar      1 <0>        -0.2089
     27 C20        -2.5505   -8.4897   -8.3464 C.ar      1 <0>         0.3236
     28 N3         -3.1633   -7.9956   -9.3948 N.pl3     1 <0>        -0.5920
     29 C21        -4.6052   -7.9695   -9.1246 C.3       1 <0>         0.0568
     30 C22        -7.7945   -7.5373   -5.6302 C.2       1 <0>         0.4919
     31 O3         -8.8031   -7.2551   -6.2543 O.co2     1 <0>        -0.6690
     32 O4         -7.8801   -7.9356   -4.4811 O.co2     1 <0>        -0.6710
     33 N4         -3.9671   -1.9477    1.2848 N.4       1 <0>        -0.6217
     34 H3          1.0001    2.1870    0.0043 H         1 <0>         0.1131
     35 H4         -0.5497    2.1708   -0.8711 H         1 <0>         0.0837
     36 H5         -0.5327    2.1613    0.9088 H         1 <0>         0.0822
     37 H6         -2.2257   -0.0675    0.9130 H         1 <0>         0.0800
     38 H7         -2.2427   -0.0579   -0.8669 H         1 <0>         0.1006
     39 H8         -1.4032   -2.3910   -0.8874 H         1 <0>         0.1265
     40 H9         -1.3862   -2.4006    0.8924 H         1 <0>         0.1109
     41 H10        -3.1748   -2.5922   -2.2641 H         1 <0>         0.0871
     42 H11        -2.1401   -3.8854   -2.9230 H         1 <0>         0.0910
     43 H12        -5.1729   -3.6571   -3.1970 H         1 <0>         0.0821
     44 H13        -3.9706   -3.4544   -4.4946 H         1 <0>         0.0935
     45 H14        -3.2335   -5.8080   -4.1620 H         1 <0>         0.0967
     46 H15        -5.5389   -5.8772   -2.1622 H         1 <0>         0.0838
     47 H16        -4.6031   -7.2908   -2.7064 H         1 <0>         0.0924
     48 H17        -2.5376   -6.3337   -1.7812 H         1 <0>         0.0848
     49 H18        -3.7859   -6.3557   -0.5090 H         1 <0>         0.1067
     50 H19        -4.9163   -7.7948   -4.8579 H         1 <0>         0.3903
     51 H20        -5.9494   -9.4905   -6.2310 H         1 <0>         0.1148
     52 H21        -6.8588   -8.9817   -7.6741 H         1 <0>         0.1299
     53 H22        -3.7144   -9.6549   -5.2387 H         1 <0>         0.1574
     54 H23        -1.3298  -10.0071   -4.9613 H         1 <0>         0.1538
     55 H24         0.2613   -9.4356   -6.7281 H         1 <0>         0.1556
     56 H25        -0.4335   -8.4992   -8.8313 H         1 <0>         0.1557
     57 H26        -5.1356   -8.5943   -9.8432 H         1 <0>         0.1766
     58 H27        -4.9755   -6.9454   -9.1710 H         1 <0>         0.1742
     59 H28        -3.4953   -2.3937    2.0572 H         1 <0>         0.4435
     60 H29        -3.8828   -0.9460    1.3723 H         1 <0>         0.4390
     61 H30        -2.7354   -7.7004  -10.2137 H         1 <0>         0.4524
     62 H31        -4.9427   -2.2051    1.2927 H         1 <0>         0.4441
@<TRIPOS>BOND
     1    1    2 1
     2    1   34 1
     3    1   35 1
     4    1   36 1
     5    2    3 1
     6    3    4 1
     7    3   37 1
     8    3   38 1
     9    4    5 1
    10    4   39 1
    11    4   40 1
    12    5    6 1
    13    5    7 1
    14    5   33 1
    15    7    8 2
    16    7    9 am
    17    9   14 1
    18    9   10 1
    19   10   11 1
    20   10   41 1
    21   10   42 1
    22   11   12 1
    23   11   43 1
    24   11   44 1
    25   12   13 1
    26   12   15 1
    27   12   45 1
    28   13   14 1
    29   13   46 1
    30   13   47 1
    31   14   48 1
    32   14   49 1
    33   15   16 2
    34   15   17 am
    35   17   18 1
    36   17   50 1
    37   18   19 1
    38   18   20 1
    39   18   30 1
    40   20   21 1
    41   20   51 1
    42   20   52 1
    43   21   29 1
    44   21   22 2
    45   22   27 ar
    46   22   23 ar
    47   23   24 ar
    48   23   53 1
    49   24   25 ar
    50   24   54 1
    51   25   26 ar
    52   25   55 1
    53   26   27 ar
    54   26   56 1
    55   27   28 2
    56   28   29 1
    57   28   61 1
    58   29   57 1
    59   29   58 1
    60   30   31 2
    61   30   32 1
    62   33   59 1
    63   33   60 1
    64   33   62 1
@<TRIPOS>MOLECULE
ZINC67628215
   63    64     0     0     0
SMALL
USER_CHARGES

@<TRIPOS>ATOM
      1 C1         -0.0187    1.5258    0.0104 C.3       1 <0>        -0.1545
      2 C2          0.0021   -0.0041    0.0020 C.3       1 <0>        -0.1046
      3 C3         -1.4339   -0.5358    0.0229 C.3       1 <0>        -0.1435
      4 C4         -1.4051   -2.0640    0.0946 C.3       1 <0>        -0.0065
      5 N1         -0.7073   -2.4871    1.3147 N.4       1 <0>        -0.3782
      6 C5          0.6906   -2.0421    1.2688 C.3       1 <0>        -0.0127
      7 C6          0.7425   -0.5130    1.2422 C.3       1 <0>        -0.1422
      8 C7         -0.7502   -3.9518    1.4187 C.3       1 <0>        -0.0428
      9 C8         -0.1338   -4.3869    2.7497 C.3       1 <0>         0.0709
     10 H1          0.8713   -3.9743    2.8367 H         1 <0>         0.1302
     11 C9         -0.0645   -5.9144    2.8045 C.3       1 <0>         0.1121
     12 N2          0.5257   -6.3310    4.0790 N.am      1 <0>        -0.7447
     13 C10         0.6870   -7.6412    4.3506 C.2       1 <0>         0.7088
     14 O1          0.3426   -8.4774    3.5379 O.2       1 <0>        -0.5824
     15 N3          1.2300   -8.0245    5.5231 N.am      1 <0>        -0.7379
     16 C11         1.4053   -9.4486    5.8184 C.3       1 <0>         0.1267
     17 C12         2.0378   -9.6085    7.2024 C.3       1 <0>         0.1080
     18 N4          2.2131  -11.0327    7.4976 N.am      1 <0>        -0.7314
     19 C13         2.7561  -11.4159    8.6701 C.2       1 <0>         0.5211
     20 O2          3.0996  -10.5818    9.4808 O.2       1 <0>        -0.5330
     21 C14         2.9364  -12.8810    8.9738 C.3       1 <0>        -0.1052
     22 C15         1.5745  -13.5778    8.9519 C.3       1 <0>        -0.1101
     23 C16         1.7576  -15.0652    9.2603 C.3       1 <0>        -0.1190
     24 C17         2.3900  -15.2250   10.6442 C.3       1 <0>        -0.1241
     25 C18         3.7520  -14.5282   10.6662 C.3       1 <0>        -0.1213
     26 C19         3.5689  -13.0408   10.3578 C.3       1 <0>        -0.1001
     27 O3         -0.9405   -3.9077    3.8275 O.3       1 <0>        -0.5502
     28 H2          1.0039    1.9031    0.0027 H         1 <0>         0.0678
     29 H3         -0.5459    1.8868   -0.8726 H         1 <0>         0.0677
     30 H4         -0.5289    1.8773    0.9072 H         1 <0>         0.0623
     31 H5          0.5096   -0.3568   -0.8958 H         1 <0>         0.0887
     32 H6         -1.9559   -0.1403    0.8942 H         1 <0>         0.0888
     33 H7         -1.9508   -0.2237   -0.8846 H         1 <0>         0.1135
     34 H8         -2.4259   -2.4459    0.1094 H         1 <0>         0.1308
     35 H9         -0.8832   -2.4585   -0.7772 H         1 <0>         0.1295
     36 H10         1.2170   -2.4078    2.1504 H         1 <0>         0.1299
     37 H11         1.1679   -2.4370    0.3719 H         1 <0>         0.1299
     38 H12         1.7812   -0.1846    1.2063 H         1 <0>         0.1129
     39 H13         0.2657   -0.1170    2.1388 H         1 <0>         0.0893
     40 H14        -1.7855   -4.2894    1.3701 H         1 <0>         0.1399
     41 H15        -0.1859   -4.3911    0.5961 H         1 <0>         0.1444
     42 H16        -1.0696   -6.3270    2.7175 H         1 <0>         0.0817
     43 H17         0.5508   -6.2799    1.9824 H         1 <0>         0.0870
     44 H18         0.8004   -5.6638    4.7274 H         1 <0>         0.4040
     45 H19         1.5047   -7.3573    6.1715 H         1 <0>         0.4017
     46 H20         0.4351   -9.9451    5.8028 H         1 <0>         0.0772
     47 H21         2.0555   -9.8980    5.0677 H         1 <0>         0.0772
     48 H22         3.0080   -9.1121    7.2180 H         1 <0>         0.0748
     49 H23         1.3876   -9.1591    7.9530 H         1 <0>         0.0750
     50 H24         1.9384  -11.6998    6.8493 H         1 <0>         0.4043
     51 H25         3.5866  -13.3303    8.2232 H         1 <0>         0.0995
     52 H26         0.9243  -13.1284    9.7026 H         1 <0>         0.0688
     53 H27         1.1239  -13.4639    7.9659 H         1 <0>         0.0654
     54 H28         0.7873  -15.5616    9.2446 H         1 <0>         0.0675
     55 H29         2.4078  -15.5145    8.5096 H         1 <0>         0.0655
     56 H30         1.7399  -14.7757   11.3949 H         1 <0>         0.0634
     57 H31         2.5205  -16.2846   10.8639 H         1 <0>         0.0653
     58 H32         4.2025  -14.6420   11.6521 H         1 <0>         0.0680
     59 H33         4.4021  -14.9775    9.9155 H         1 <0>         0.0634
     60 H34         4.5391  -12.5444   10.3734 H         1 <0>         0.0697
     61 H35         2.9187  -12.5915   11.1085 H         1 <0>         0.0703
     62 H36        -1.8502   -4.2352    3.8137 H         1 <0>         0.3942
     63 H37        -1.1621   -2.0815    2.1189 H         1 <0>         0.4271
@<TRIPOS>BOND
     1    1    2 1
     2    1   28 1
     3    1   29 1
     4    1   30 1
     5    2    7 1
     6    2    3 1
     7    2   31 1
     8    3    4 1
     9    3   32 1
    10    3   33 1
    11    4    5 1
    12    4   34 1
    13    4   35 1
    14    5    6 1
    15    5    8 1
    16    5   63 1
    17    6    7 1
    18    6   36 1
    19    6   37 1
    20    7   38 1
    21    7   39 1
    22    8    9 1
    23    8   40 1
    24    8   41 1
    25    9   10 1
    26    9   11 1
    27    9   27 1
    28   11   12 1
    29   11   42 1
    30   11   43 1
    31   12   13 am
    32   12   44 1
    33   13   14 2
    34   13   15 am
    35   15   16 1
    36   15   45 1
    37   16   17 1
    38   16   46 1
    39   16   47 1
    40   17   18 1
    41   17   48 1
    42   17   49 1
    43   18   19 am
    44   18   50 1
    45   19   20 2
    46   19   21 1
    47   21   26 1
    48   21   22 1
    49   21   51 1
    50   22   23 1
    51   22   52 1
    52   22   53 1
    53   23   24 1
    54   23   54 1
    55   23   55 1
    56   24   25 1
    57   24   56 1
    58   24   57 1
    59   25   26 1
    60   25   58 1
    61   25   59 1
    62   26   60 1
    63   26   61 1
    64   27   62 1
@<TRIPOS>MOLECULE
ZINC26421692
   36    38     0     0     0
SMALL
USER_CHARGES
1-(2-aminoethyl)-5-[(4-bromophenyl)methyl]pyrazolo[4,5-e]pyrimidin-4-one
@<TRIPOS>ATOM
      1 C1         -3.9802   -2.6608    5.3204 C.ar      1 <0>        -0.0973
      2 C2         -3.4282   -3.4303    6.3271 C.ar      1 <0>        -0.0931
      3 C3         -3.0707   -2.8445    7.5281 C.ar      1 <0>        -0.0776
      4 C4         -3.2609   -1.4877    7.7190 C.ar      1 <0>        -0.0909
      5 C5         -3.8081   -0.7181    6.7098 C.ar      1 <0>        -0.0832
      6 C6         -4.1653   -1.3040    5.5097 C.ar      1 <0>        -0.1149
      7 C7         -4.7624   -0.4645    4.4098 C.3       1 <0>         0.1311
      8 N1         -3.6913    0.0553    3.5560 N.am      1 <0>        -0.5343
      9 C8         -3.2793   -0.6591    2.4786 C.2       1 <0>         0.4338
     10 N2         -2.3345   -0.2572    1.6799 N.2       1 <0>        -0.5499
     11 C9         -1.6941    0.9072    1.8688 C.2       1 <0>         0.3401
     12 C10        -2.0524    1.7162    2.9588 C.2       1 <0>        -0.3318
     13 C11        -3.1165    1.2461    3.8456 C.2       1 <0>         0.5715
     14 O1         -3.4720    1.9018    4.8089 O.2       1 <0>        -0.4951
     15 C12        -1.2332    2.8598    2.9173 C.2       1 <0>         0.1499
     16 N3         -0.4354    2.7557    1.8905 N.2       1 <0>        -0.2720
     17 N4         -0.6984    1.5583    1.2133 N.pl3     1 <0>        -0.3708
     18 C13        -0.0127    1.0858    0.0080 C.3       1 <0>         0.1155
     19 C14        -0.7527    1.5927   -1.2315 C.3       1 <0>        -0.0213
     20 N5         -0.0651    1.1189   -2.4401 N.4       1 <0>        -0.6811
     21 Br1        -2.3215   -3.8979    8.9083 Br        1 <0>        -0.0368
     22 H1         -4.2632   -3.1189    4.3841 H         1 <0>         0.1345
     23 H2         -3.2795   -4.4895    6.1775 H         1 <0>         0.1385
     24 H3         -2.9816   -1.0298    8.6564 H         1 <0>         0.1384
     25 H4         -3.9564    0.3413    6.8586 H         1 <0>         0.1403
     26 H5         -5.4450   -1.0816    3.8070 H         1 <0>         0.1167
     27 H6         -5.3199    0.3750    4.8508 H         1 <0>         0.1204
     28 H7         -3.7578   -1.6057    2.2748 H         1 <0>         0.2161
     29 H8         -1.2572    3.6806    3.6188 H         1 <0>         0.2060
     30 H9          1.0193    1.4665    0.0002 H         1 <0>         0.1201
     31 H10         0.0022   -0.0141    0.0020 H         1 <0>         0.1185
     32 H11        -1.7847    1.2120   -1.2237 H         1 <0>         0.1343
     33 H12        -0.7676    2.6926   -1.2254 H         1 <0>         0.1375
     34 H13        -0.5971    1.4833   -3.3313 H         1 <0>         0.4671
     35 H14        -0.0502    0.0190   -2.4461 H         1 <0>         0.4596
     36 H15         0.9669    1.4996   -2.4479 H         1 <0>         0.4601
@<TRIPOS>BOND
     1    1    6 ar
     2    1    2 ar
     3    1   22 1
     4    2    3 ar
     5    2   23 1
     6    3    4 ar
     7    3   21 1
     8    4    5 ar
     9    4   24 1
    10    5    6 ar
    11    5   25 1
    12    6    7 1
    13    7    8 1
    14    7   26 1
    15    7   27 1
    16    8   13 am
    17    8    9 1
    18    9   10 2
    19    9   28 1
    20   10   11 1
    21   11   17 1
    22   11   12 2
    23   12   13 1
    24   12   15 1
    25   13   14 2
    26   15   16 2
    27   15   29 1
    28   16   17 1
    29   17   18 1
    30   18   19 1
    31   18   30 1
    32   18   31 1
    33   19   20 1
    34   19   32 1
    35   19   33 1
    36   20   34 1
    37   20   35 1
    38   20   36 1
@<TRIPOS>MOLECULE
ZINC37711344
   36    37     0     0     0
SMALL
USER_CHARGES

@<TRIPOS>ATOM
      1 C1         -0.0178    1.4648    0.0101 C.3       1 <0>        -0.0470
      2 N1          0.0021   -0.0041    0.0020 N.4       1 <0>        -0.5096
      3 C2         -1.3761   -0.5125    0.0124 C.3       1 <0>         0.0508
      4 C3         -1.3556   -2.0194    0.0042 C.ar      1 <0>        -0.1591
      5 C4         -1.5597   -2.7070   -1.1771 C.ar      1 <0>        -0.0647
      6 C5         -1.5416   -4.0902   -1.1857 C.ar      1 <0>        -0.0258
      7 C6         -1.3193   -4.7886   -0.0119 C.ar      1 <0>        -0.0586
      8 C7         -1.1148   -4.1048    1.1717 C.ar      1 <0>        -0.0397
      9 C8         -1.1265   -2.7164    1.1807 C.ar      1 <0>         0.1174
     10 O1         -0.9201   -2.0415    2.3425 O.3       1 <0>        -0.2893
     11 C9         -2.0732   -1.7376    3.1300 C.3       1 <0>         0.0921
     12 H1         -2.9377   -1.6267    2.4754 H         1 <0>         0.1088
     13 C10        -2.3320   -2.8975    4.1317 C.3       1 <0>        -0.6078
     14 S1         -3.3779   -2.0090    5.3675 S.o2      1 <0>         2.3761
     15 O2         -4.7147   -1.9468    4.8898 O.2       1 <0>        -0.9147
     16 O3         -3.1180   -2.5331    6.6625 O.2       1 <0>        -0.9099
     17 C11        -2.6039   -0.3450    5.2196 C.3       1 <0>        -0.6229
     18 C12        -1.8396   -0.4298    3.8849 C.3       1 <0>         0.1137
     19 H2         -2.1529    0.4000    3.2513 H         1 <0>         0.0856
     20 O4         -0.4414   -0.2963    4.1478 O.3       1 <0>        -0.5431
     21 Cl1        -0.8364   -4.9809    2.6443 Cl        1 <0>        -0.0094
     22 Cl2        -1.7988   -4.9511   -2.6711 Cl        1 <0>        -0.0179
     23 H3          1.0047    1.8421    0.0024 H         1 <0>         0.1302
     24 H4         -0.5450    1.8259   -0.8730 H         1 <0>         0.1259
     25 H5         -0.5280    1.8163    0.9069 H         1 <0>         0.1231
     26 H6          0.4744   -0.3295   -0.8281 H         1 <0>         0.4317
     27 H7         -1.8863   -0.1610    0.9092 H         1 <0>         0.1360
     28 H8         -1.9033   -0.1515   -0.8706 H         1 <0>         0.1490
     29 H9         -1.7337   -2.1640   -2.0943 H         1 <0>         0.1586
     30 H10        -1.3059   -5.8685   -0.0206 H         1 <0>         0.1640
     31 H11        -2.8799   -3.7140    3.6613 H         1 <0>         0.1500
     32 H12        -1.4030   -3.2513    4.5786 H         1 <0>         0.1612
     33 H13        -3.3671    0.4320    5.1784 H         1 <0>         0.1545
     34 H14        -1.9155   -0.1661    6.0455 H         1 <0>         0.1608
     35 H15        -0.2063    0.5107    4.6259 H         1 <0>         0.3930
     36 H16         0.4901   -0.3383    0.8195 H         1 <0>         0.4369
@<TRIPOS>BOND
     1    1    2 1
     2    1   23 1
     3    1   24 1
     4    1   25 1
     5    2    3 1
     6    2   26 1
     7    2   36 1
     8    3    4 1
     9    3   27 1
    10    3   28 1
    11    4    9 ar
    12    4    5 ar
    13    5    6 ar
    14    5   29 1
    15    6    7 ar
    16    6   22 1
    17    7    8 ar
    18    7   30 1
    19    8    9 ar
    20    8   21 1
    21    9   10 1
    22   10   11 1
    23   11   12 1
    24   11   18 1
    25   11   13 1
    26   13   14 1
    27   13   31 1
    28   13   32 1
    29   14   15 2
    30   14   16 2
    31   14   17 1
    32   17   18 1
    33   17   33 1
    34   17   34 1
    35   18   19 1
    36   18   20 1
    37   20   35 1
@<TRIPOS>MOLECULE
ZINC42100402
   36    38     0     0     0
SMALL
USER_CHARGES

@<TRIPOS>ATOM
      1 C1         -0.0167    1.3783    0.0096 C.ar      1 <0>        -0.1179
      2 C2          1.1747    2.0833    0.0020 C.ar      1 <0>        -0.0295
      3 C3          2.3732    1.4065   -0.0130 C.ar      1 <0>        -0.2062
      4 C4          2.4061    0.0178   -0.0208 C.ar      1 <0>         0.1900
      5 C5          1.2026   -0.6856   -0.0127 C.ar      1 <0>        -0.1107
      6 C6          0.0021   -0.0041    0.0020 C.ar      1 <0>        -0.0203
      7 Br1         1.2144   -2.5765   -0.0229 Br        1 <0>        -0.0069
      8 N1          3.7267   -0.4335   -0.0359 N.am      1 <0>        -0.6396
      9 C7          4.6101    0.5790   -0.0389 C.2       1 <0>         0.5223
     10 O1          5.8189    0.4804   -0.0513 O.2       1 <0>        -0.4429
     11 C8          3.8130    1.8660   -0.0243 C.3       1 <0>         0.0522
     12 H1          4.0366    2.4436    0.8726 H         1 <0>         0.1915
     13 N2          4.0913    2.6574   -1.2303 N.4       1 <0>        -0.4928
     14 C9          5.4580    3.1916   -1.1608 C.3       1 <0>        -0.0149
     15 C10         5.7478    4.0158   -2.4169 C.3       1 <0>        -0.1157
     16 H2          5.5513    3.4092   -3.3009 H         1 <0>         0.1199
     17 C11         4.8376    5.2550   -2.4355 C.3       1 <0>        -0.1511
     18 C12         5.3606    6.2236   -3.5345 C.3       1 <0>        -0.5768
     19 S1          7.1790    6.0747   -3.2776 S.o2      1 <0>         2.3791
     20 O2          7.6037    7.0906   -2.3793 O.2       1 <0>        -0.9165
     21 O3          7.8157    5.9481   -4.5416 O.2       1 <0>        -0.9175
     22 C13         7.2324    4.4530   -2.4132 C.3       1 <0>        -0.5886
     23 H3         -0.9584    1.9069    0.0260 H         1 <0>         0.1579
     24 H4          1.1637    3.1633    0.0076 H         1 <0>         0.1488
     25 H5         -0.9275   -0.5538    0.0079 H         1 <0>         0.1585
     26 H6          3.9780   -1.3704   -0.0433 H         1 <0>         0.4384
     27 H7          4.0006    2.0705   -2.0460 H         1 <0>         0.4331
     28 H8          5.5559    3.8255   -0.2796 H         1 <0>         0.1483
     29 H9          6.1676    2.3668   -1.0958 H         1 <0>         0.1565
     30 H10         3.8144    4.9569   -2.6641 H         1 <0>         0.1016
     31 H11         4.8685    5.7491   -1.4644 H         1 <0>         0.1055
     32 H12         5.0738    5.8826   -4.5293 H         1 <0>         0.1470
     33 H13         5.0194    7.2433   -3.3561 H         1 <0>         0.1530
     34 H14         7.5983    4.5704   -1.3932 H         1 <0>         0.1523
     35 H15         7.8462    3.7416   -2.9657 H         1 <0>         0.1566
     36 H16         3.4344    3.4209   -1.2905 H         1 <0>         0.4355
@<TRIPOS>BOND
     1    1    6 ar
     2    1    2 ar
     3    1   23 1
     4    2    3 ar
     5    2   24 1
     6    3   11 1
     7    3    4 ar
     8    4    5 ar
     9    4    8 1
    10    5    6 ar
    11    5    7 1
    12    6   25 1
    13    8    9 am
    14    8   26 1
    15    9   10 2
    16    9   11 1
    17   11   12 1
    18   11   13 1
    19   13   14 1
    20   13   27 1
    21   13   36 1
    22   14   15 1
    23   14   28 1
    24   14   29 1
    25   15   16 1
    26   15   22 1
    27   15   17 1
    28   17   18 1
    29   17   30 1
    30   17   31 1
    31   18   19 1
    32   18   32 1
    33   18   33 1
    34   19   20 2
    35   19   21 2
    36   19   22 1
    37   22   34 1
    38   22   35 1
@<TRIPOS>MOLECULE
ZINC55888317
   57    59     0     0     0
SMALL
USER_CHARGES

@<TRIPOS>ATOM
      1 C1          0.0198    1.5292   -0.0212 C.3       1 <0>        -0.1382
      2 C2          0.0341   -0.0007   -0.0252 C.3       1 <0>         0.1414
      3 H1          0.4669   -0.3596   -0.9590 H         1 <0>         0.0789
      4 C3         -1.3974   -0.5281    0.1136 C.3       1 <0>        -0.1329
      5 C4         -1.3645   -2.0522    0.2488 C.3       1 <0>        -0.1260
      6 C5         -0.5837   -2.4376    1.5074 C.3       1 <0>        -0.1309
      7 C6          0.8571   -1.9318    1.3844 C.3       1 <0>         0.1285
      8 H2          1.3899   -2.1160    2.3174 H         1 <0>         0.0903
      9 N1          0.8328   -0.4887    1.1074 N.am      1 <0>        -0.5906
     10 C7          1.5266    0.3710    1.8794 C.2       1 <0>         0.5119
     11 O1          1.4268    1.5658    1.6971 O.2       1 <0>        -0.5348
     12 C8          2.4263   -0.1525    2.9692 C.3       1 <0>         0.0958
     13 N2          3.0627    0.9723    3.6593 N.pl3     1 <0>        -0.7321
     14 C9          3.9463    0.7345    4.7145 C.ar      1 <0>         0.2529
     15 C10         4.3133   -0.5665    5.0356 C.ar      1 <0>        -0.1765
     16 C11         5.1874   -0.7980    6.0792 C.ar      1 <0>        -0.0218
     17 C12         5.6971    0.2634    6.8048 C.ar      1 <0>        -0.1477
     18 C13         5.3336    1.5593    6.4883 C.ar      1 <0>        -0.0448
     19 C14         4.4645    1.7984    5.4416 C.ar      1 <0>        -0.1326
     20 N3          4.1023    3.1093    5.1183 N.4       1 <0>        -0.3108
     21 C15         5.3114    3.8981    4.8527 C.3       1 <0>        -0.0021
     22 C16         4.9178    5.3119    4.4195 C.3       1 <0>        -0.1450
     23 C17         4.1087    5.9757    5.5375 C.3       1 <0>         0.0974
     24 C18         2.8894    5.1061    5.8573 C.3       1 <0>        -0.1850
     25 C19         3.3582    3.6999    6.2372 C.3       1 <0>        -0.0019
     26 O2          3.6747    7.2685    5.1104 O.3       1 <0>        -0.5522
     27 C20         1.5611   -2.6621    0.2390 C.3       1 <0>        -0.1693
     28 H3          1.0320    1.9025   -0.1766 H         1 <0>         0.0705
     29 H4         -0.6269    1.8886   -0.8217 H         1 <0>         0.0508
     30 H5         -0.3561    1.8865    0.9376 H         1 <0>         0.0690
     31 H6         -1.8607   -0.0942    0.9996 H         1 <0>         0.0679
     32 H7         -1.9735   -0.2537   -0.7702 H         1 <0>         0.0808
     33 H8         -2.3833   -2.4323    0.3230 H         1 <0>         0.0725
     34 H9         -0.8788   -2.4840   -0.6263 H         1 <0>         0.0708
     35 H10        -1.0546   -1.9856    2.3803 H         1 <0>         0.0685
     36 H11        -0.5805   -3.5222    1.6157 H         1 <0>         0.0833
     37 H12         1.8364   -0.7291    3.6817 H         1 <0>         0.1037
     38 H13         3.1934   -0.7913    2.5315 H         1 <0>         0.1046
     39 H14         2.8705    1.8821    3.3833 H         1 <0>         0.4009
     40 H15         3.9152   -1.3958    4.4698 H         1 <0>         0.1452
     41 H16         5.4732   -1.8090    6.3292 H         1 <0>         0.1466
     42 H17         6.3804    0.0795    7.6208 H         1 <0>         0.1463
     43 H18         5.7329    2.3858    7.0574 H         1 <0>         0.1423
     44 H19         5.9162    3.9511    5.7580 H         1 <0>         0.1332
     45 H20         5.8878    3.4226    4.0591 H         1 <0>         0.1369
     46 H21         5.8169    5.8964    4.2245 H         1 <0>         0.1223
     47 H22         4.3131    5.2600    3.5141 H         1 <0>         0.0959
     48 H23         4.7298    6.0742    6.4278 H         1 <0>         0.0749
     49 H24         2.3386    5.5435    6.6900 H         1 <0>         0.1168
     50 H25         2.2426    5.0500    4.9817 H         1 <0>         0.0964
     51 H26         2.4925    3.0782    6.4657 H         1 <0>         0.1321
     52 H27         4.0046    3.7571    7.1130 H         1 <0>         0.1321
     53 H28         3.1553    7.7471    5.7708 H         1 <0>         0.3937
     54 H29         1.0298   -2.4725   -0.6937 H         1 <0>         0.0687
     55 H30         2.5859   -2.3008    0.1532 H         1 <0>         0.0598
     56 H31         1.5691   -3.7331    0.4414 H         1 <0>         0.0767
     57 H32         3.5198    3.1028    4.2945 H         1 <0>         0.4149
@<TRIPOS>BOND
     1    1    2 1
     2    1   28 1
     3    1   29 1
     4    1   30 1
     5    2    3 1
     6    2    9 1
     7    2    4 1
     8    4    5 1
     9    4   31 1
    10    4   32 1
    11    5    6 1
    12    5   33 1
    13    5   34 1
    14    6    7 1
    15    6   35 1
    16    6   36 1
    17    7    8 1
    18    7    9 1
    19    7   27 1
    20    9   10 am
    21   10   11 2
    22   10   12 1
    23   12   13 1
    24   12   37 1
    25   12   38 1
    26   13   14 1
    27   13   39 1
    28   14   19 ar
    29   14   15 ar
    30   15   16 ar
    31   15   40 1
    32   16   17 ar
    33   16   41 1
    34   17   18 ar
    35   17   42 1
    36   18   19 ar
    37   18   43 1
    38   19   20 1
    39   20   25 1
    40   20   21 1
    41   20   57 1
    42   21   22 1
    43   21   44 1
    44   21   45 1
    45   22   23 1
    46   22   46 1
    47   22   47 1
    48   23   24 1
    49   23   26 1
    50   23   48 1
    51   24   25 1
    52   24   49 1
    53   24   50 1
    54   25   51 1
    55   25   52 1
    56   26   53 1
    57   27   54 1
    58   27   55 1
    59   27   56 1
@<TRIPOS>MOLECULE
ZINC66187591
   57    59     0     0     0
SMALL
USER_CHARGES

@<TRIPOS>ATOM
      1 C1          4.4806    1.6754   -6.3532 C.3       1 <0>        -0.1894
      2 C2          4.7150    0.1680   -6.2358 C.3       1 <0>        -0.0098
      3 N1          4.1088   -0.3264   -4.9924 N.4       1 <0>        -0.3789
      4 C3          4.7967    0.2727   -3.8425 C.3       1 <0>        -0.0148
      5 C4          4.1174   -0.1756   -2.5467 C.3       1 <0>        -0.1420
      6 C5          4.1830   -1.7022   -2.4441 C.3       1 <0>        -0.1517
      7 C6          3.5283   -2.3160   -3.6851 C.3       1 <0>         0.1508
      8 H1          2.4741   -2.0404   -3.7144 H         1 <0>         0.1088
      9 C7          4.2294   -1.7883   -4.9387 C.3       1 <0>        -0.0177
     10 N2          3.6513   -3.7748   -3.6321 N.am      1 <0>        -0.7450
     11 C8          2.7438   -4.5034   -2.9523 C.2       1 <0>         0.7139
     12 O1          1.8768   -3.9461   -2.3072 O.2       1 <0>        -0.5772
     13 N3          2.7972   -5.8496   -2.9877 N.am      1 <0>        -0.6220
     14 C9          1.7493   -6.6575   -2.3490 C.3       1 <0>         0.1312
     15 C10         1.1920   -7.6454   -3.3786 C.3       1 <0>        -0.1432
     16 C11         2.3426   -8.4627   -3.9703 C.3       1 <0>         0.1443
     17 C12         3.3231   -7.5265   -4.6806 C.3       1 <0>        -0.1454
     18 C13         3.9013   -6.5372   -3.6710 C.3       1 <0>         0.1146
     19 N4          1.8095   -9.4314   -4.9314 N.am      1 <0>        -0.7296
     20 C14         2.4943  -10.5606   -5.2003 C.2       1 <0>         0.5255
     21 O2          3.5519  -10.7749   -4.6466 O.2       1 <0>        -0.5346
     22 C15         1.9458  -11.5571   -6.1889 C.3       1 <0>        -0.1414
     23 C16         0.9013  -12.5115   -5.5865 C.3       1 <0>        -0.1234
     24 C17         1.5547  -13.6265   -6.4200 C.3       1 <0>        -0.1435
     25 C18         2.8444  -12.7897   -6.3839 C.3       1 <0>        -0.1184
     26 H2          3.4095    1.8766   -6.3662 H         1 <0>         0.0815
     27 H3          4.9350    2.1812   -5.5013 H         1 <0>         0.0816
     28 H4          4.9305    2.0423   -7.2758 H         1 <0>         0.1076
     29 H5          4.2606   -0.3378   -7.0878 H         1 <0>         0.1311
     30 H6          5.7862   -0.0332   -6.2228 H         1 <0>         0.1300
     31 H7          5.8385   -0.0475   -3.8357 H         1 <0>         0.1302
     32 H8          4.7519    1.3591   -3.9186 H         1 <0>         0.1360
     33 H9          4.6307    0.2688   -1.6940 H         1 <0>         0.1171
     34 H10         3.0754    0.1443   -2.5524 H         1 <0>         0.0914
     35 H11         5.2243   -2.0193   -2.3869 H         1 <0>         0.0830
     36 H12         3.6511   -2.0307   -1.5512 H         1 <0>         0.1024
     37 H13         3.7658   -2.2235   -5.8240 H         1 <0>         0.1359
     38 H14         5.2834   -2.0646   -4.9085 H         1 <0>         0.1337
     39 H15         4.3859   -4.2164   -4.0863 H         1 <0>         0.4017
     40 H16         2.1729   -7.2064   -1.5079 H         1 <0>         0.0765
     41 H17         0.9493   -6.0061   -1.9972 H         1 <0>         0.1027
     42 H18         0.4821   -8.3150   -2.8931 H         1 <0>         0.0896
     43 H19         0.6889   -7.0962   -4.1745 H         1 <0>         0.0738
     44 H20         2.8607   -8.9922   -3.1707 H         1 <0>         0.0927
     45 H21         4.1300   -8.1116   -5.1218 H         1 <0>         0.0857
     46 H22         2.7999   -6.9785   -5.4642 H         1 <0>         0.0690
     47 H23         4.5207   -5.8066   -4.1912 H         1 <0>         0.0756
     48 H24         4.5043   -7.0762   -2.9401 H         1 <0>         0.0810
     49 H25         0.9636   -9.2600   -5.3742 H         1 <0>         0.4018
     50 H26         1.6292  -11.0952   -7.1240 H         1 <0>         0.1127
     51 H27         1.0070  -12.6517   -4.5107 H         1 <0>         0.0851
     52 H28        -0.1218  -12.2846   -5.8863 H         1 <0>         0.0762
     53 H29         1.6355  -14.5764   -5.8916 H         1 <0>         0.0753
     54 H30         1.1299  -13.7312   -7.4184 H         1 <0>         0.0851
     55 H31         3.3899  -12.7875   -7.3276 H         1 <0>         0.0727
     56 H32         3.4813  -13.0059   -5.5262 H         1 <0>         0.0952
     57 H33         3.1334   -0.0694   -4.9696 H         1 <0>         0.4249
@<TRIPOS>BOND
     1    1    2 1
     2    1   26 1
     3    1   27 1
     4    1   28 1
     5    2    3 1
     6    2   29 1
     7    2   30 1
     8    3    9 1
     9    3    4 1
    10    3   57 1
    11    4    5 1
    12    4   31 1
    13    4   32 1
    14    5    6 1
    15    5   33 1
    16    5   34 1
    17    6    7 1
    18    6   35 1
    19    6   36 1
    20    7    8 1
    21    7    9 1
    22    7   10 1
    23    9   37 1
    24    9   38 1
    25   10   11 am
    26   10   39 1
    27   11   12 2
    28   11   13 am
    29   13   18 1
    30   13   14 1
    31   14   15 1
    32   14   40 1
    33   14   41 1
    34   15   16 1
    35   15   42 1
    36   15   43 1
    37   16   17 1
    38   16   19 1
    39   16   44 1
    40   17   18 1
    41   17   45 1
    42   17   46 1
    43   18   47 1
    44   18   48 1
    45   19   20 am
    46   19   49 1
    47   20   21 2
    48   20   22 1
    49   22   25 1
    50   22   23 1
    51   22   50 1
    52   23   24 1
    53   23   51 1
    54   23   52 1
    55   24   25 1
    56   24   53 1
    57   24   54 1
    58   25   55 1
    59   25   56 1
@<TRIPOS>MOLECULE
ZINC12292233
   56    58     0     0     0
SMALL
USER_CHARGES
1-[(2S)-2-(3,4-dimethylphenyl)-2-hydroxy-ethyl]-4-(4-methoxyphenyl)piperidin-4-ol
@<TRIPOS>ATOM
      1 C1         -3.8696    7.2395   -7.1520 C.3       1 <0>        -0.1295
      2 C2         -3.1662    6.6830   -5.9410 C.ar      1 <0>        -0.0634
      3 C3         -1.9275    6.0839   -6.0755 C.ar      1 <0>        -0.1095
      4 C4         -1.2809    5.5766   -4.9643 C.ar      1 <0>        -0.1090
      5 C5         -1.8764    5.6609   -3.7194 C.ar      1 <0>        -0.1449
      6 C6         -3.1141    6.2611   -3.5847 C.ar      1 <0>        -0.0985
      7 C7         -3.7592    6.7720   -4.6957 C.ar      1 <0>        -0.0774
      8 C8         -5.1092    7.4256   -4.5490 C.3       1 <0>        -0.1260
      9 C9         -1.1733    5.1040   -2.5085 C.3       1 <0>         0.1356
     10 H1         -1.5860    5.5584   -1.6077 H         1 <0>         0.1273
     11 C10        -1.3753    3.5884   -2.4536 C.3       1 <0>        -0.0367
     12 C11        -0.7544    1.5936   -1.2306 C.3       1 <0>         0.0019
     13 C12        -0.0127    1.0858    0.0080 C.3       1 <0>        -0.1337
     14 C13        -0.7310    1.5804    1.2666 C.3       1 <0>         0.1808
     15 C14        -0.8011    3.1098    1.2370 C.3       1 <0>        -0.1699
     16 C15        -1.5200    3.5588   -0.0372 C.3       1 <0>        -0.0021
     17 C16         0.0293    1.1339    2.4887 C.ar      1 <0>        -0.1702
     18 C17         1.4001    0.9647    2.4251 C.ar      1 <0>        -0.0702
     19 C18         2.1001    0.5609    3.5455 C.ar      1 <0>        -0.2048
     20 C19         1.4250    0.3141    4.7322 C.ar      1 <0>         0.1451
     21 C20         0.0488    0.4792    4.7918 C.ar      1 <0>        -0.1452
     22 C21        -0.6458    0.8886    3.6701 C.ar      1 <0>        -0.0645
     23 O1          2.1107   -0.0881    5.8344 O.3       1 <0>        -0.3121
     24 C22         3.5255   -0.2371    5.6997 C.3       1 <0>         0.0238
     25 O2         -2.0546    1.0431    1.3033 O.3       1 <0>        -0.5500
     26 O3          0.2231    5.3957   -2.5923 O.3       1 <0>        -0.5482
     27 H2         -3.5830    8.2818   -7.2917 H         1 <0>         0.0795
     28 H3         -3.5865    6.6637   -8.0332 H         1 <0>         0.0721
     29 H4         -4.9480    7.1755   -7.0072 H         1 <0>         0.0766
     30 H5         -1.4640    6.0147   -7.0485 H         1 <0>         0.1307
     31 H6         -0.3117    5.1116   -5.0689 H         1 <0>         0.1210
     32 H7         -3.5775    6.3307   -2.6117 H         1 <0>         0.1257
     33 H8         -4.9785    8.4912   -4.3609 H         1 <0>         0.0779
     34 H9         -5.6820    7.2860   -5.4658 H         1 <0>         0.0769
     35 H10        -5.6436    6.9721   -3.7142 H         1 <0>         0.0691
     36 H11        -0.8852    3.1253   -3.3100 H         1 <0>         0.1338
     37 H12        -2.4414    3.3627   -2.4792 H         1 <0>         0.1432
     38 H13        -0.2368    1.2551   -2.1281 H         1 <0>         0.1292
     39 H14        -1.7723    1.2037   -1.2295 H         1 <0>         0.1392
     40 H15         0.0021   -0.0041    0.0020 H         1 <0>         0.1226
     41 H16         1.0097    1.4637    0.0003 H         1 <0>         0.1026
     42 H17         0.2087    3.5200    1.2489 H         1 <0>         0.0999
     43 H18        -1.3492    3.4665    2.1090 H         1 <0>         0.1164
     44 H19        -1.5583    4.6477   -0.0680 H         1 <0>         0.1287
     45 H20        -2.5342    3.1594   -0.0418 H         1 <0>         0.1366
     46 H21         1.9246    1.1526    1.4999 H         1 <0>         0.1258
     47 H22         3.1714    0.4331    3.4966 H         1 <0>         0.1346
     48 H23        -0.4789    0.2881    5.7145 H         1 <0>         0.1382
     49 H24        -1.7171    1.0176    3.7162 H         1 <0>         0.1293
     50 H25         3.9488   -0.5618    6.6503 H         1 <0>         0.1077
     51 H26         3.7412   -0.9811    4.9329 H         1 <0>         0.0592
     52 H27         3.9658    0.7180    5.4133 H         1 <0>         0.0590
     53 H28        -2.5685    1.3157    2.0758 H         1 <0>         0.3899
     54 H29         0.6570    5.0217   -3.3714 H         1 <0>         0.3881
     55 N1         -0.7648    3.0719   -1.2111 N.4       1 <0>        -0.3907
     56 H30         0.2023    3.4110   -1.1489 H         1 <0>         0.4286
@<TRIPOS>BOND
     1    1    2 1
     2    1   27 1
     3    1   28 1
     4    1   29 1
     5    2    7 ar
     6    2    3 ar
     7    3    4 ar
     8    3   30 1
     9    4    5 ar
    10    4   31 1
    11    5    6 ar
    12    5    9 1
    13    6    7 ar
    14    6   32 1
    15    7    8 1
    16    8   33 1
    17    8   34 1
    18    8   35 1
    19    9   10 1
    20    9   11 1
    21    9   26 1
    22   11   36 1
    23   11   37 1
    24   11   55 1
    25   12   13 1
    26   12   38 1
    27   12   39 1
    28   12   55 1
    29   13   14 1
    30   13   40 1
    31   13   41 1
    32   14   15 1
    33   14   17 1
    34   14   25 1
    35   15   16 1
    36   15   42 1
    37   15   43 1
    38   16   44 1
    39   16   45 1
    40   16   55 1
    41   17   22 ar
    42   17   18 ar
    43   18   19 ar
    44   18   46 1
    45   19   20 ar
    46   19   47 1
    47   20   21 ar
    48   20   23 1
    49   21   22 ar
    50   21   48 1
    51   22   49 1
    52   23   24 1
    53   24   50 1
    54   24   51 1
    55   24   52 1
    56   25   53 1
    57   26   54 1
    58   55   56 1
@<TRIPOS>MOLECULE
ZINC16694828
   42    44     0     0     0
SMALL
USER_CHARGES
2-[[[(1R)-1-(2,4-dichloro-5-fluoro-phenyl)ethyl]amino]methyl]-8-methyl-3H-quinazolin-4-one
@<TRIPOS>ATOM
      1 C1          4.4201   -0.8786   -0.0433 C.3       1 <0>        -0.1094
      2 C2          4.7140    0.5995   -0.0392 C.ar      1 <0>        -0.0619
      3 C3          6.0166    1.0458   -0.0492 C.ar      1 <0>        -0.0735
      4 C4          6.3031    2.4044   -0.0451 C.ar      1 <0>        -0.1057
      5 C5          5.2868    3.3349   -0.0309 C.ar      1 <0>        -0.0475
      6 C6          3.9621    2.9042   -0.0206 C.ar      1 <0>        -0.1735
      7 C7          3.6669    1.5227   -0.0247 C.ar      1 <0>         0.1313
      8 N1          2.3693    1.1272   -0.0092 N.2       1 <0>        -0.5214
      9 C8          1.3960    1.9864   -0.0006 C.2       1 <0>         0.3488
     10 N2          1.5866    3.3315    0.0048 N.am      1 <0>        -0.6434
     11 H1          0.8198    3.9255    0.0153 H         1 <0>         0.4251
     12 C9          2.8366    3.8505   -0.0048 C.2       1 <0>         0.5542
     13 O1          3.0218    5.0535   -0.0001 O.2       1 <0>        -0.4777
     14 C10        -0.0178    1.4648    0.0101 C.3       1 <0>         0.0551
     15 C11        -1.3620   -0.5491    0.0121 C.3       1 <0>         0.0788
     16 H2         -2.0173    0.1009   -0.5676 H         1 <0>         0.1588
     17 C12        -1.8685   -0.6293    1.4536 C.3       1 <0>        -0.1819
     18 C13        -1.3565   -1.9280   -0.5958 C.ar      1 <0>        -0.1001
     19 C14        -0.2001   -2.6851   -0.5805 C.ar      1 <0>        -0.1442
     20 C15        -0.1946   -3.9515   -1.1387 C.ar      1 <0>         0.1407
     21 C16        -1.3491   -4.4601   -1.7125 C.ar      1 <0>        -0.0491
     22 C17        -2.5051   -3.7017   -1.7267 C.ar      1 <0>        -0.0565
     23 C18        -2.5102   -2.4377   -1.1639 C.ar      1 <0>        -0.0162
     24 Cl1        -3.9636   -1.4882   -1.1766 Cl        1 <0>        -0.0195
     25 Cl2        -1.3439   -6.0487   -2.4126 Cl        1 <0>        -0.0010
     26 F1          0.9354   -4.6918   -1.1238 F         1 <0>        -0.1042
     27 H3          4.3393   -1.2301   -1.0719 H         1 <0>         0.0775
     28 H4          5.2270   -1.4109    0.4603 H         1 <0>         0.0762
     29 H5          3.4813   -1.0639    0.4788 H         1 <0>         0.0691
     30 H6          6.8255    0.3303   -0.0600 H         1 <0>         0.1439
     31 H7          7.3313    2.7347   -0.0534 H         1 <0>         0.1450
     32 H8          5.5157    4.3904   -0.0281 H         1 <0>         0.1467
     33 H9         -0.5450    1.8259   -0.8730 H         1 <0>         0.1667
     34 H10        -0.5280    1.8163    0.9069 H         1 <0>         0.1670
     35 H11        -1.8725    0.3680    1.8933 H         1 <0>         0.0939
     36 H12        -2.8807   -1.0338    1.4611 H         1 <0>         0.1141
     37 H13        -1.2132   -1.2794    2.0333 H         1 <0>         0.0915
     38 H14         0.6992   -2.2883   -0.1331 H         1 <0>         0.1541
     39 H15        -3.4051   -4.0975   -2.1737 H         1 <0>         0.1700
     40 N3          0.0110   -0.0100    0.0019 N.4       1 <0>        -0.5078
     41 H16         0.5120   -0.3437    0.8337 H         1 <0>         0.4428
     42 H17         0.4960   -0.3346   -0.8429 H         1 <0>         0.4434
@<TRIPOS>BOND
     1    1    2 1
     2    1   27 1
     3    1   28 1
     4    1   29 1
     5    2    7 ar
     6    2    3 ar
     7    3    4 ar
     8    3   30 1
     9    4    5 ar
    10    4   31 1
    11    5    6 ar
    12    5   32 1
    13    6   12 1
    14    6    7 ar
    15    7    8 1
    16    8    9 2
    17    9   10 1
    18    9   14 1
    19   10   11 1
    20   10   12 am
    21   12   13 2
    22   14   33 1
    23   14   34 1
    24   14   40 1
    25   15   16 1
    26   15   17 1
    27   15   18 1
    28   15   40 1
    29   17   35 1
    30   17   36 1
    31   17   37 1
    32   18   23 ar
    33   18   19 ar
    34   19   20 ar
    35   19   38 1
    36   20   21 ar
    37   20   26 1
    38   21   22 ar
    39   21   25 1
    40   22   23 ar
    41   22   39 1
    42   23   24 1
    43   40   41 1
    44   40   42 1
@<TRIPOS>MOLECULE
ZINC04744007
   36    38     0     0     0
SMALL
USER_CHARGES
6-bromo-2-imino-N-(p-tolyl)chromene-3-carboxamide
@<TRIPOS>ATOM
      1 C1          3.7068   -0.7121   -0.0661 C.3       1 <0>        -0.1254
      2 C2          2.3940    0.0275   -0.0419 C.ar      1 <0>        -0.0768
      3 C3          1.2934   -0.5404    0.5732 C.ar      1 <0>        -0.1014
      4 C4          0.0887    0.1345    0.5968 C.ar      1 <0>        -0.1247
      5 C5         -0.0165    1.3853    0.0021 C.ar      1 <0>         0.1104
      6 C6          1.0910    1.9532   -0.6145 C.ar      1 <0>        -0.1089
      7 C7          2.2927    1.2729   -0.6345 C.ar      1 <0>        -0.1041
      8 N1         -1.2363    2.0689    0.0191 N.am      1 <0>        -0.6499
      9 C8         -1.2546    3.4121    0.1283 C.2       1 <0>         0.5842
     10 O1         -0.2107    4.0368    0.1269 O.2       1 <0>        -0.5234
     11 C9         -2.5372    4.1231    0.2490 C.2       1 <0>        -0.2602
     12 C10        -3.7307    3.4272    0.2462 C.2       1 <0>         0.1201
     13 C11        -4.9755    4.1868    0.3729 C.ar      1 <0>        -0.1628
     14 C12        -6.2110    3.5260    0.3792 C.ar      1 <0>        -0.0051
     15 C13        -7.3737    4.2543    0.4945 C.ar      1 <0>        -0.1056
     16 C14        -7.3251    5.6374    0.6045 C.ar      1 <0>        -0.0043
     17 C15        -6.1161    6.3008    0.5991 C.ar      1 <0>        -0.1094
     18 C16        -4.9292    5.5873    0.4840 C.ar      1 <0>         0.1555
     19 O2         -3.7472    6.2417    0.4788 O.3       1 <0>        -0.2141
     20 C17        -2.5733    5.5905    0.3690 C.2       1 <0>         0.5404
     21 N2         -1.4563    6.2668    0.3686 N.pl3     1 <0>        -0.6910
     22 Br1        -9.0436    3.3670    0.5036 Br        1 <0>         0.0083
     23 H1          3.5938   -1.6767    0.4504 H         1 <0>         0.0706
     24 H2          4.4753   -0.1116    0.4426 H         1 <0>         0.0756
     25 H3          4.0095   -0.8878   -1.1089 H         1 <0>         0.0761
     26 H4          1.3759   -1.5130    1.0354 H         1 <0>         0.1336
     27 H5         -0.7705   -0.3096    1.0773 H         1 <0>         0.1300
     28 H6          1.0124    2.9254   -1.0780 H         1 <0>         0.1376
     29 H7          3.1544    1.7140   -1.1134 H         1 <0>         0.1315
     30 H8         -2.1809    1.5103   -0.0567 H         1 <0>         0.4396
     31 H9         -3.7447    2.3511    0.1556 H         1 <0>         0.1836
     32 H10        -6.2510    2.4501    0.2938 H         1 <0>         0.1680
     33 H11        -8.2430    6.1992    0.6947 H         1 <0>         0.1700
     34 H12        -6.0916    7.3771    0.6850 H         1 <0>         0.1701
     35 H13        -1.4770    7.3630    0.4579 H         1 <0>         0.4701
     36 H14        -0.4946    5.7403    0.2789 H         1 <0>         0.4919
@<TRIPOS>BOND
     1    1    2 1
     2    1   23 1
     3    1   24 1
     4    1   25 1
     5    2    7 ar
     6    2    3 ar
     7    3    4 ar
     8    3   26 1
     9    4    5 ar
    10    4   27 1
    11    5    6 ar
    12    5    8 1
    13    6    7 ar
    14    6   28 1
    15    7   29 1
    16    8    9 am
    17    8   30 1
    18    9   10 2
    19    9   11 1
    20   11   20 1
    21   11   12 2
    22   12   13 1
    23   12   31 1
    24   13   18 ar
    25   13   14 ar
    26   14   15 ar
    27   14   32 1
    28   15   16 ar
    29   15   22 1
    30   16   17 ar
    31   16   33 1
    32   17   18 ar
    33   17   34 1
    34   18   19 1
    35   19   20 1
    36   20   21 2
    37   21   35 1
    38   21   36 1
@<TRIPOS>MOLECULE
ZINC40749845
   37    39     0     0     0
SMALL
USER_CHARGES

@<TRIPOS>ATOM
      1 C1         -0.1621    1.4407    0.1064 C.ar      1 <0>        -0.0987
      2 C2          1.0560    2.0884    0.0076 C.ar      1 <0>        -0.0172
      3 C3          2.2234    1.3540   -0.0960 C.ar      1 <0>        -0.0988
      4 C4          2.1730   -0.0285   -0.1004 C.ar      1 <0>         0.0618
      5 C5          0.9547   -0.6764   -0.0011 C.ar      1 <0>        -0.6746
      6 C6         -0.2129    0.0582    0.1021 C.ar      1 <0>         0.0620
      7 Cl1        -1.7418   -0.7547    0.2267 Cl        1 <0>         0.0029
      8 S1          0.8902   -2.4372   -0.0072 S.o2      1 <0>         2.6975
      9 O1         -0.4113   -2.7944   -0.4517 O.2       1 <0>        -0.9123
     10 O2          2.0687   -2.8846   -0.6631 O.2       1 <0>        -0.9123
     11 N1          1.0063   -2.9369    1.5674 N.pl3     1 <0>        -1.0040
     12 C7          2.2312   -3.2496    2.3426 C.3       1 <0>         0.1411
     13 H1          3.0978   -3.4027    1.6995 H         1 <0>         0.1358
     14 C8          1.8631   -4.5225    3.1393 C.3       1 <0>        -0.1798
     15 C9          0.3260   -4.4749    3.2677 C.3       1 <0>        -0.1802
     16 C10        -0.0897   -3.1715    2.5384 C.3       1 <0>         0.1426
     17 H2         -1.0601   -3.2627    2.0504 H         1 <0>         0.1371
     18 C11        -0.0482   -2.0236    3.5597 C.3       1 <0>        -0.1608
     19 C12         1.2725   -2.0947    4.3317 C.3       1 <0>         0.0373
     20 C13         2.4466   -2.0996    3.3393 C.3       1 <0>        -0.1584
     21 N2          1.2975   -3.3171    5.1460 N.4       1 <0>        -0.6824
     22 Cl2         3.6383   -0.9502   -0.2310 Cl        1 <0>         0.0028
     23 Br1         1.1252    3.9781    0.0135 Br        1 <0>         0.0105
     24 H3         -1.0733    2.0142    0.1914 H         1 <0>         0.1638
     25 H4          3.1744    1.8598   -0.1739 H         1 <0>         0.1638
     26 H5          2.1710   -5.4143    2.5935 H         1 <0>         0.1232
     27 H6          2.3272   -4.5006    4.1253 H         1 <0>         0.0912
     28 H7         -0.1223   -5.3433    2.7850 H         1 <0>         0.1232
     29 H8          0.0339   -4.4297    4.3168 H         1 <0>         0.0911
     30 H9         -0.1154   -1.0686    3.0385 H         1 <0>         0.1149
     31 H10        -0.8827   -2.1221    4.2539 H         1 <0>         0.1088
     32 H11         1.3596   -1.2245    4.9823 H         1 <0>         0.1448
     33 H12         3.3774   -2.2580    3.8839 H         1 <0>         0.1081
     34 H13         2.4933   -1.1533    2.8004 H         1 <0>         0.1159
     35 H14         1.2178   -4.1234    4.5447 H         1 <0>         0.4511
     36 H15         2.1664   -3.3632    5.6569 H         1 <0>         0.4239
     37 H16         0.5256   -3.3043    5.7956 H         1 <0>         0.4243
@<TRIPOS>BOND
     1    1    6 ar
     2    1    2 ar
     3    1   24 1
     4    2    3 ar
     5    2   23 1
     6    3    4 ar
     7    3   25 1
     8    4    5 ar
     9    4   22 1
    10    5    6 ar
    11    5    8 1
    12    6    7 1
    13    8    9 2
    14    8   10 2
    15    8   11 1
    16   11   16 1
    17   11   12 1
    18   12   13 1
    19   12   20 1
    20   12   14 1
    21   14   15 1
    22   14   26 1
    23   14   27 1
    24   15   16 1
    25   15   28 1
    26   15   29 1
    27   16   17 1
    28   16   18 1
    29   18   19 1
    30   18   30 1
    31   18   31 1
    32   19   20 1
    33   19   21 1
    34   19   32 1
    35   20   33 1
    36   20   34 1
    37   21   35 1
    38   21   36 1
    39   21   37 1
@<TRIPOS>MOLECULE
ZINC65298173
   55    58     0     0     0
SMALL
USER_CHARGES

@<TRIPOS>ATOM
      1 C1         -0.0178    1.4648    0.0101 C.3       1 <0>        -0.0456
      2 N1          0.0021   -0.0041    0.0020 N.4       1 <0>        -0.3831
      3 C2         -1.3755   -0.5105    0.0027 C.3       1 <0>         0.0022
      4 C3         -1.3619   -2.0380   -0.0850 C.3       1 <0>        -0.1213
      5 C4         -0.6094   -2.6055    1.1234 C.3       1 <0>         0.2621
      6 C5          0.8048   -2.0154    1.1487 C.3       1 <0>        -0.1297
      7 C6          0.7122   -0.4887    1.1916 C.3       1 <0>         0.0005
      8 N2         -0.5214   -4.0662    0.9962 N.3       1 <0>        -0.6840
      9 C7          0.0271   -4.6515    2.2316 C.3       1 <0>         0.1379
     10 H1          0.9580   -4.1492    2.4948 H         1 <0>         0.1066
     11 C8         -1.0005   -4.4551    3.3506 C.3       1 <0>        -0.1719
     12 C9         -1.4893   -3.0335    3.3379 C.2       1 <0>         0.2752
     13 N3         -1.3111   -2.2412    2.3493 N.2       1 <0>        -0.5743
     14 C10        -2.2093   -2.5276    4.5227 C.ar      1 <0>        -0.0824
     15 C11        -2.4187   -3.3601    5.6243 C.ar      1 <0>        -0.0741
     16 C12        -3.0917   -2.8813    6.7285 C.ar      1 <0>        -0.1128
     17 C13        -3.5597   -1.5778    6.7466 C.ar      1 <0>        -0.0111
     18 C14        -3.3556   -0.7475    5.6570 C.ar      1 <0>        -0.1200
     19 C15        -2.6790   -1.2126    4.5491 C.ar      1 <0>        -0.0569
     20 Cl1        -4.4061   -0.9826    8.1405 Cl        1 <0>        -0.0514
     21 C16         0.2831   -6.1225    2.0274 C.ar      1 <0>        -0.0734
     22 C17        -0.3514   -6.7988    1.0016 C.ar      1 <0>        -0.1270
     23 C18        -0.1189   -8.1479    0.8116 C.ar      1 <0>        -0.0814
     24 C19         0.7489   -8.8274    1.6467 C.ar      1 <0>        -0.1909
     25 C20         1.3878   -8.1559    2.6762 C.ar      1 <0>         0.1109
     26 C21         1.1583   -6.7958    2.8637 C.ar      1 <0>         0.0796
     27 O1          1.7874   -6.1309    3.8695 O.3       1 <0>        -0.4831
     28 O2          2.2415   -8.8227    3.4983 O.3       1 <0>        -0.3062
     29 C22         2.4331  -10.2155    3.2428 C.3       1 <0>         0.0230
     30 H2          1.0047    1.8421    0.0024 H         1 <0>         0.1235
     31 H3         -0.5450    1.8259   -0.8730 H         1 <0>         0.1240
     32 H4         -0.5280    1.8163    0.9069 H         1 <0>         0.1217
     33 H5         -1.8742   -0.2043    0.9223 H         1 <0>         0.1377
     34 H6         -1.9124   -0.1026   -0.8537 H         1 <0>         0.1312
     35 H7         -2.3857   -2.4119   -0.0849 H         1 <0>         0.1103
     36 H8         -0.8611   -2.3455   -1.0031 H         1 <0>         0.1042
     37 H9          1.3329   -2.3731    2.0325 H         1 <0>         0.1087
     38 H10         1.3436   -2.3225    0.2523 H         1 <0>         0.1055
     39 H11         1.7162   -0.0647    1.2126 H         1 <0>         0.1311
     40 H12         0.1709   -0.1830    2.0869 H         1 <0>         0.1345
     41 H13        -1.4218   -4.4649    0.7760 H         1 <0>         0.3552
     42 H14        -1.8419   -5.1301    3.1938 H         1 <0>         0.1038
     43 H15        -0.5358   -4.6710    4.3127 H         1 <0>         0.1042
     44 H16        -2.0546   -4.3767    5.6113 H         1 <0>         0.1387
     45 H17        -3.2546   -3.5242    7.5809 H         1 <0>         0.1430
     46 H18        -3.7235    0.2678    5.6768 H         1 <0>         0.1395
     47 H19        -2.5166   -0.5628    3.7019 H         1 <0>         0.1381
     48 H20        -1.0305   -6.2718    0.3478 H         1 <0>         0.1283
     49 H21        -0.6163   -8.6727    0.0094 H         1 <0>         0.1318
     50 H22         0.9284   -9.8818    1.4965 H         1 <0>         0.1362
     51 H23         1.3010   -6.1305    4.7052 H         1 <0>         0.3849
     52 H24         1.4788  -10.7352    3.3280 H         1 <0>         0.0585
     53 H25         2.8310  -10.3490    2.2369 H         1 <0>         0.0587
     54 H26         3.1357  -10.6248    3.9688 H         1 <0>         0.1063
     55 H27         0.4769   -0.3283   -0.8271 H         1 <0>         0.4229
@<TRIPOS>BOND
     1    1    2 1
     2    1   30 1
     3    1   31 1
     4    1   32 1
     5    2    7 1
     6    2    3 1
     7    2   55 1
     8    3    4 1
     9    3   33 1
    10    3   34 1
    11    4    5 1
    12    4   35 1
    13    4   36 1
    14    5   13 1
    15    5    6 1
    16    5    8 1
    17    6    7 1
    18    6   37 1
    19    6   38 1
    20    7   39 1
    21    7   40 1
    22    8    9 1
    23    8   41 1
    24    9   10 1
    25    9   11 1
    26    9   21 1
    27   11   12 1
    28   11   42 1
    29   11   43 1
    30   12   13 2
    31   12   14 1
    32   14   19 ar
    33   14   15 ar
    34   15   16 ar
    35   15   44 1
    36   16   17 ar
    37   16   45 1
    38   17   18 ar
    39   17   20 1
    40   18   19 ar
    41   18   46 1
    42   19   47 1
    43   21   26 ar
    44   21   22 ar
    45   22   23 ar
    46   22   48 1
    47   23   24 ar
    48   23   49 1
    49   24   25 ar
    50   24   50 1
    51   25   26 ar
    52   25   28 1
    53   26   27 1
    54   27   51 1
    55   28   29 1
    56   29   52 1
    57   29   53 1
    58   29   54 1
@<TRIPOS>MOLECULE
ZINC35148890
   37    39     0     0     0
SMALL
USER_CHARGES

@<TRIPOS>ATOM
      1 C1         -0.0187    1.5258    0.0104 C.3       1 <0>        -0.1854
      2 C2          0.0021   -0.0041    0.0020 C.3       1 <0>         0.0045
      3 H1         -1.0205   -0.3814    0.0098 H         1 <0>         0.1718
      4 C3          0.7309   -0.5033    1.2229 C.2       1 <0>         0.5106
      5 O1          1.7253   -1.1865    1.0985 O.2       1 <0>        -0.5259
      6 N1          0.2778   -0.1906    2.4531 N.am      1 <0>        -0.8227
      7 N2          0.6897   -0.4778   -1.2066 N.4       1 <0>        -0.4992
      8 C4         -0.0856   -0.0931   -2.3936 C.3       1 <0>         0.0917
      9 C5          0.6198   -0.5791   -3.6335 C.2       1 <0>        -0.0949
     10 C6          0.4301   -1.7753   -4.2278 C.2       1 <0>        -0.1288
     11 C7          1.2816   -1.8204   -5.3467 C.2       1 <0>        -0.1415
     12 C8          1.9538   -0.6348   -5.3760 C.2       1 <0>         0.1141
     13 O2          1.5360    0.1086   -4.3320 O.3       1 <0>        -0.1538
     14 C9          2.9556   -0.2347   -6.3749 C.2       1 <0>         0.1751
     15 N3          3.3971   -0.9076   -7.4188 N.2       1 <0>        -0.4549
     16 C10         4.3267   -0.4117   -8.2578 C.ar      1 <0>         0.0640
     17 C11         4.8836   -1.0245   -9.4061 C.ar      1 <0>        -0.0434
     18 C12         5.8224   -0.3833  -10.1520 C.ar      1 <0>        -0.1106
     19 C13         6.2709    0.8884   -9.8232 C.ar      1 <0>        -0.0681
     20 C14         5.7524    1.5229   -8.7094 C.ar      1 <0>        -0.0747
     21 C15         4.8042    0.8842   -7.9489 C.ar      1 <0>        -0.1263
     22 S1          3.8795    1.2912   -6.4876 S.3       1 <0>         0.0347
     23 H2          1.0039    1.9031    0.0027 H         1 <0>         0.0924
     24 H3         -0.5459    1.8868   -0.8726 H         1 <0>         0.1001
     25 H4         -0.5289    1.8773    0.9072 H         1 <0>         0.1142
     26 H5         -0.5174    0.3558    2.5526 H         1 <0>         0.4133
     27 H6          0.7470   -0.5119    3.2389 H         1 <0>         0.4254
     28 H7          1.6080   -0.0627   -1.2556 H         1 <0>         0.4363
     29 H8         -1.0777   -0.5415   -2.3406 H         1 <0>         0.1665
     30 H9         -0.1790    0.9922   -2.4305 H         1 <0>         0.1534
     31 H10        -0.2476   -2.5519   -3.9054 H         1 <0>         0.1739
     32 H11         1.3834   -2.6365   -6.0466 H         1 <0>         0.1765
     33 H12         4.5589   -2.0137   -9.6930 H         1 <0>         0.1402
     34 H13         6.2296   -0.8762  -11.0224 H         1 <0>         0.1437
     35 H14         7.0178    1.3773  -10.4311 H         1 <0>         0.1483
     36 H15         6.0909    2.5124   -8.4395 H         1 <0>         0.1415
     37 H16         0.7761   -1.4825   -1.1724 H         1 <0>         0.4383
@<TRIPOS>BOND
     1    1    2 1
     2    1   23 1
     3    1   24 1
     4    1   25 1
     5    2    3 1
     6    2    4 1
     7    2    7 1
     8    4    5 2
     9    4    6 am
    10    6   26 1
    11    6   27 1
    12    7    8 1
    13    7   28 1
    14    7   37 1
    15    8    9 1
    16    8   29 1
    17    8   30 1
    18    9   13 1
    19    9   10 2
    20   10   11 1
    21   10   31 1
    22   11   12 2
    23   11   32 1
    24   12   13 1
    25   12   14 1
    26   14   22 1
    27   14   15 2
    28   15   16 1
    29   16   21 ar
    30   16   17 ar
    31   17   18 ar
    32   17   33 1
    33   18   19 ar
    34   18   34 1
    35   19   20 ar
    36   19   35 1
    37   20   21 ar
    38   20   36 1
    39   21   22 1
@<TRIPOS>MOLECULE
ZINC40853058
   45    46     0     0     0
SMALL
USER_CHARGES

@<TRIPOS>ATOM
      1 C1         -0.0187    1.5258    0.0104 C.3       1 <0>        -0.1590
      2 C2          0.0021   -0.0041    0.0020 C.3       1 <0>        -0.1385
      3 C3          0.7182   -0.4975   -1.2568 C.3       1 <0>        -0.1324
      4 C4          0.7390   -2.0273   -1.2652 C.3       1 <0>         0.0605
      5 C5          1.4790   -2.5342   -0.0257 C.3       1 <0>        -0.1822
      6 C6          1.4443   -2.5133   -2.5051 C.2       1 <0>         0.4937
      7 O1          2.2585   -1.8038   -3.0571 O.2       1 <0>        -0.4350
      8 N1          1.1704   -3.7364   -3.0006 N.am      1 <0>        -0.6181
      9 C7          1.8201   -4.1840   -4.1425 C.2       1 <0>         0.0074
     10 C8          1.6629   -5.3978   -4.7911 C.2       1 <0>        -0.1000
     11 C9          2.4673   -5.6262   -5.9781 C.2       1 <0>        -0.0624
     12 C10         3.2827   -4.5977   -6.2992 C.2       1 <0>        -0.1924
     13 S1          2.9716   -3.3754   -5.0591 S.3       1 <0>         0.3255
     14 C11         4.2298   -4.5283   -7.4569 C.3       1 <0>        -0.0386
     15 C12         4.4159   -5.9477   -8.0132 C.3       1 <0>        -0.0868
     16 H1          5.0120   -6.5375   -7.3169 H         1 <0>         0.0789
     17 C13         3.0396   -6.5963   -8.1873 C.3       1 <0>        -0.1175
     18 C14         2.4273   -6.8950   -6.8170 C.3       1 <0>        -0.0634
     19 C15         5.1274   -5.8787   -9.3660 C.3       1 <0>        -0.1504
     20 C16         0.7454   -6.3867   -4.3105 C.1       1 <0>         0.2568
     21 N2          0.0176   -7.1712   -3.9292 N.1       1 <0>        -0.4073
     22 N3         -0.6392   -2.5358   -1.2548 N.4       1 <0>        -0.6380
     23 H2          1.0039    1.9031    0.0027 H         1 <0>         0.0681
     24 H3         -0.5459    1.8868   -0.8726 H         1 <0>         0.0630
     25 H4         -0.5289    1.8773    0.9072 H         1 <0>         0.0702
     26 H5          0.5293   -0.3651    0.8851 H         1 <0>         0.0855
     27 H6         -1.0205   -0.3814    0.0098 H         1 <0>         0.0589
     28 H7          0.1910   -0.1364   -2.1398 H         1 <0>         0.0997
     29 H8          1.7408   -0.1202   -1.2645 H         1 <0>         0.1299
     30 H9          0.9688   -2.1826    0.8711 H         1 <0>         0.1089
     31 H10         1.4937   -3.6240   -0.0317 H         1 <0>         0.0901
     32 H11         2.5015   -2.1569   -0.0334 H         1 <0>         0.1217
     33 H12         0.5193   -4.3039   -2.5591 H         1 <0>         0.4094
     34 H13         3.8170   -3.8814   -8.2311 H         1 <0>         0.0919
     35 H14         5.1902   -4.1357   -7.1229 H         1 <0>         0.0890
     36 H15         2.3863   -5.9176   -8.7356 H         1 <0>         0.0703
     37 H16         3.1456   -7.5257   -8.7469 H         1 <0>         0.0776
     38 H17         3.0019   -7.6784   -6.3227 H         1 <0>         0.0851
     39 H18         1.3940   -7.2191   -6.9409 H         1 <0>         0.0781
     40 H19         6.1024   -5.4081   -9.2401 H         1 <0>         0.0606
     41 H20         5.2586   -6.8868   -9.7593 H         1 <0>         0.0620
     42 H21         4.5280   -5.2922  -10.0623 H         1 <0>         0.0591
     43 H22        -1.1272   -2.2015   -2.0722 H         1 <0>         0.4423
     44 H23        -0.6255   -3.5447   -1.2603 H         1 <0>         0.4311
     45 H24        -1.1115   -2.2104   -0.4246 H         1 <0>         0.4465
@<TRIPOS>BOND
     1    1    2 1
     2    1   23 1
     3    1   24 1
     4    1   25 1
     5    2    3 1
     6    2   26 1
     7    2   27 1
     8    3    4 1
     9    3   28 1
    10    3   29 1
    11    4    5 1
    12    4    6 1
    13    4   22 1
    14    5   30 1
    15    5   31 1
    16    5   32 1
    17    6    7 2
    18    6    8 am
    19    8    9 1
    20    8   33 1
    21    9   13 1
    22    9   10 2
    23   10   11 1
    24   10   20 1
    25   11   18 1
    26   11   12 2
    27   12   13 1
    28   12   14 1
    29   14   15 1
    30   14   34 1
    31   14   35 1
    32   15   16 1
    33   15   17 1
    34   15   19 1
    35   17   18 1
    36   17   36 1
    37   17   37 1
    38   18   38 1
    39   18   39 1
    40   19   40 1
    41   19   41 1
    42   19   42 1
    43   20   21 3
    44   22   43 1
    45   22   44 1
    46   22   45 1
@<TRIPOS>MOLECULE
ZINC43639915
   41    43     0     0     0
SMALL
USER_CHARGES

@<TRIPOS>ATOM
      1 C1         -0.0187    1.5258    0.0104 C.3       1 <0>        -0.1515
      2 C2          0.0021   -0.0041    0.0020 C.3       1 <0>        -0.0553
      3 C3          0.7074   -0.4901   -1.2379 C.2       1 <0>        -0.0714
      4 C4          2.0229   -0.7610   -1.4208 C.2       1 <0>        -0.1809
      5 C5          2.4507   -1.2017   -2.6591 C.2       1 <0>        -0.0655
      6 C6          1.5420   -1.3499   -3.6540 C.2       1 <0>        -0.2606
      7 S1          0.0261   -0.8658   -2.8447 S.3       1 <0>         0.0511
      8 C7          1.7552   -1.8094   -5.0733 C.3       1 <0>         0.1977
      9 H1          2.6960   -2.3557   -5.1409 H         1 <0>         0.1616
     10 C8          1.8028   -0.6121   -5.9872 C.ar      1 <0>        -0.1322
     11 C9          0.6254   -0.0053   -6.3901 C.ar      1 <0>        -0.1089
     12 C10         0.6588    1.0924   -7.2274 C.ar      1 <0>        -0.0869
     13 C11         1.8768    1.5889   -7.6664 C.ar      1 <0>         0.1203
     14 C12         3.0642    0.9769   -7.2600 C.ar      1 <0>         0.1043
     15 C13         3.0209   -0.1213   -6.4146 C.ar      1 <0>        -0.0683
     16 N1          4.1061    1.6871   -7.8519 N.am      1 <0>        -0.6391
     17 H2          5.0518    1.4952   -7.7533 H         1 <0>         0.4426
     18 C14         3.5768    2.6850   -8.5845 C.2       1 <0>         0.6853
     19 O1          4.2152    3.4938   -9.2318 O.2       1 <0>        -0.5277
     20 N2          2.2340    2.6519   -8.4926 N.am      1 <0>        -0.6387
     21 H3          1.6199    3.2640   -8.9275 H         1 <0>         0.4437
     22 N3          0.6488   -2.6883   -5.4749 N.4       1 <0>        -0.5103
     23 C15         0.9159   -3.2314   -6.8134 C.3       1 <0>        -0.0131
     24 C16        -0.2366   -4.1468   -7.2316 C.3       1 <0>        -0.1885
     25 H4          1.0039    1.9031    0.0027 H         1 <0>         0.0625
     26 H5         -0.5459    1.8868   -0.8726 H         1 <0>         0.0590
     27 H6         -0.5289    1.8773    0.9072 H         1 <0>         0.0742
     28 H7          0.5293   -0.3651    0.8851 H         1 <0>         0.0993
     29 H8         -1.0205   -0.3814    0.0098 H         1 <0>         0.0876
     30 H9          2.7264   -0.6342   -0.6112 H         1 <0>         0.1487
     31 H10         3.4933   -1.4243   -2.8315 H         1 <0>         0.1435
     32 H11        -0.3232   -0.3923   -6.0484 H         1 <0>         0.1277
     33 H12        -0.2617    1.5629   -7.5399 H         1 <0>         0.1467
     34 H13         3.9374   -0.5945   -6.0947 H         1 <0>         0.1443
     35 H14         0.5651   -3.4467   -4.8147 H         1 <0>         0.4339
     36 H15         1.0063   -2.4120   -7.5266 H         1 <0>         0.1352
     37 H16         1.8446   -3.8016   -6.7954 H         1 <0>         0.1354
     38 H17        -1.1653   -3.5765   -7.2496 H         1 <0>         0.0809
     39 H18        -0.0384   -4.5497   -8.2248 H         1 <0>         0.1092
     40 H19        -0.3270   -4.9661   -6.5185 H         1 <0>         0.0819
     41 H20        -0.2110   -2.1604   -5.4915 H         1 <0>         0.4224
@<TRIPOS>BOND
     1    1    2 1
     2    1   25 1
     3    1   26 1
     4    1   27 1
     5    2    3 1
     6    2   28 1
     7    2   29 1
     8    3    7 1
     9    3    4 2
    10    4    5 1
    11    4   30 1
    12    5    6 2
    13    5   31 1
    14    6    7 1
    15    6    8 1
    16    8    9 1
    17    8   10 1
    18    8   22 1
    19   10   15 ar
    20   10   11 ar
    21   11   12 ar
    22   11   32 1
    23   12   13 ar
    24   12   33 1
    25   13   20 1
    26   13   14 ar
    27   14   15 ar
    28   14   16 1
    29   15   34 1
    30   16   17 1
    31   16   18 am
    32   18   19 2
    33   18   20 am
    34   20   21 1
    35   22   23 1
    36   22   35 1
    37   22   41 1
    38   23   24 1
    39   23   36 1
    40   23   37 1
    41   24   38 1
    42   24   39 1
    43   24   40 1
@<TRIPOS>MOLECULE
ZINC51146674
   45    47     0     0     0
SMALL
USER_CHARGES

@<TRIPOS>ATOM
      1 C1         -1.6042    1.3832    0.6753 C.3       1 <0>        -0.1160
      2 C2         -1.4311   -0.1121    0.6027 C.2       1 <0>        -0.1087
      3 C3         -2.0895   -0.8271   -0.3214 C.2       1 <0>        -0.1145
      4 S1         -1.5643   -2.5013   -0.0048 S.3       1 <0>         0.1504
      5 C4         -0.4747   -2.1954    1.3602 C.ar      1 <0>         0.1251
      6 C5         -0.5448   -0.7949    1.5289 C.ar      1 <0>        -0.1970
      7 C6          0.2554   -0.2668    2.5789 C.ar      1 <0>         0.4922
      8 N1          0.9942   -1.0910    3.3042 N.ar      1 <0>        -0.5408
      9 C7          1.0148   -2.3936    3.0863 C.ar      1 <0>         0.3044
     10 N2          0.2866   -2.9436    2.1337 N.ar      1 <0>        -0.4873
     11 C8          1.8804   -3.2721    3.9523 C.3       1 <0>         0.0748
     12 N3          1.1091   -3.7222    5.1187 N.4       1 <0>        -0.3774
     13 C9          0.7620   -2.5637    5.9505 C.3       1 <0>        -0.0066
     14 C10        -0.1101   -3.0164    7.1236 C.3       1 <0>        -0.1445
     15 C11         0.6635   -4.0366    7.9638 C.3       1 <0>        -0.1379
     16 C12         1.0848   -5.2057    7.0689 C.3       1 <0>        -0.1396
     17 C13         1.9126   -4.6719    5.8978 C.3       1 <0>         0.0280
     18 H1          2.8000   -4.1680    6.2806 H         1 <0>         0.1396
     19 C14         2.3361   -5.8368    5.0007 C.3       1 <0>        -0.1870
     20 N4          0.2620    1.0918    2.8388 N.pl3     1 <0>        -0.5574
     21 N5          0.4821    1.5432    4.1091 N.3       1 <0>        -0.5983
     22 C15        -3.0461   -0.3331   -1.3759 C.3       1 <0>        -0.0816
     23 H2         -0.7893    1.8697    0.1393 H         1 <0>         0.0800
     24 H3         -2.5551    1.6614    0.2210 H         1 <0>         0.0863
     25 H4         -1.5933    1.7000    1.7182 H         1 <0>         0.0663
     26 H5          2.2089   -4.1381    3.3777 H         1 <0>         0.1584
     27 H6          2.7503   -2.7075    4.2878 H         1 <0>         0.1558
     28 H7          1.6739   -2.1047    6.3323 H         1 <0>         0.1343
     29 H8          0.2143   -1.8372    5.3504 H         1 <0>         0.1260
     30 H9         -0.3653   -2.1551    7.7410 H         1 <0>         0.1113
     31 H10        -1.0226   -3.4753    6.7430 H         1 <0>         0.0835
     32 H11         1.5497   -3.5635    8.3867 H         1 <0>         0.0835
     33 H12         0.0264   -4.4044    8.7681 H         1 <0>         0.0943
     34 H13         1.6837   -5.9093    7.6471 H         1 <0>         0.1138
     35 H14         0.1971   -5.7101    6.6871 H         1 <0>         0.0877
     36 H15         2.9281   -5.4573    4.1679 H         1 <0>         0.0839
     37 H16         2.9328   -6.5423    5.5789 H         1 <0>         0.1077
     38 H17         1.4492   -6.3405    4.6164 H         1 <0>         0.0832
     39 H18         0.1103    1.7241    2.1189 H         1 <0>         0.4221
     40 H19         0.4578    2.5513    4.1440 H         1 <0>         0.3697
     41 H20        -0.1817    1.1430    4.7552 H         1 <0>         0.3418
     42 H21        -2.4931   -0.0911   -2.2834 H         1 <0>         0.0924
     43 H22        -3.7796   -1.1095   -1.5934 H         1 <0>         0.0847
     44 H23        -3.5576    0.5586   -1.0134 H         1 <0>         0.0912
     45 H24         0.2633   -4.1754    4.8068 H         1 <0>         0.4217
@<TRIPOS>BOND
     1    1    2 1
     2    1   23 1
     3    1   24 1
     4    1   25 1
     5    2    6 1
     6    2    3 2
     7    3    4 1
     8    3   22 1
     9    4    5 1
    10    5   10 ar
    11    5    6 ar
    12    6    7 ar
    13    7    8 ar
    14    7   20 1
    15    8    9 ar
    16    9   10 ar
    17    9   11 1
    18   11   12 1
    19   11   26 1
    20   11   27 1
    21   12   17 1
    22   12   13 1
    23   12   45 1
    24   13   14 1
    25   13   28 1
    26   13   29 1
    27   14   15 1
    28   14   30 1
    29   14   31 1
    30   15   16 1
    31   15   32 1
    32   15   33 1
    33   16   17 1
    34   16   34 1
    35   16   35 1
    36   17   18 1
    37   17   19 1
    38   19   36 1
    39   19   37 1
    40   19   38 1
    41   20   21 1
    42   20   39 1
    43   21   40 1
    44   21   41 1
    45   22   42 1
    46   22   43 1
    47   22   44 1
@<TRIPOS>MOLECULE
ZINC62069940
   46    48     0     0     0
SMALL
USER_CHARGES

@<TRIPOS>ATOM
      1 C1          0.5288    0.9657   -0.9558 C.3       1 <0>        -0.0702
      2 C2          0.4350   -0.5332   -0.8310 C.2       1 <0>         0.0948
      3 N1         -0.6386   -1.2576   -0.7094 N.2       1 <0>        -0.5182
      4 C3         -0.5905   -2.6027   -0.6054 C.ar      1 <0>         0.0760
      5 C4         -1.6419   -3.5351   -0.4681 C.ar      1 <0>        -0.1073
      6 C5         -1.3736   -4.8806   -0.3763 C.ar      1 <0>         0.1574
      7 C6         -0.0603   -5.3630   -0.4162 C.ar      1 <0>         0.1888
      8 C7          0.9888   -4.4670   -0.5508 C.ar      1 <0>        -0.1106
      9 C8          0.7225   -3.1215   -0.6424 C.ar      1 <0>        -0.1558
     10 S1          1.6951   -1.6488   -0.8249 S.3       1 <0>         0.0903
     11 N2          0.1915   -6.7377   -0.3205 N.pl3     1 <0>        -0.8718
     12 N3         -2.4352   -5.7859   -0.2396 N.pl3     1 <0>        -0.7503
     13 C9         -3.8150   -5.2956   -0.1959 C.3       1 <0>         0.1243
     14 C10        -4.7723   -6.4794   -0.0432 C.3       1 <0>        -0.1275
     15 H1         -4.5916   -7.1982   -0.8424 H         1 <0>         0.0994
     16 C11        -4.5388   -7.1527    1.3107 C.3       1 <0>        -0.1503
     17 C12        -6.2166   -5.9808   -0.1226 C.3       1 <0>         0.0013
     18 N4         -6.4799   -5.4554   -1.4689 N.4       1 <0>        -0.3983
     19 C13        -6.4901   -6.5634   -2.4581 C.3       1 <0>        -0.0079
     20 C14        -7.3048   -5.9773   -3.6385 C.3       1 <0>        -0.1459
     21 C15        -8.3975   -5.1475   -2.9261 C.3       1 <0>        -0.1451
     22 C16        -7.8289   -4.8516   -1.5259 C.3       1 <0>        -0.0092
     23 H2          1.5750    1.2579   -1.0467 H         1 <0>         0.0890
     24 H3         -0.0176    1.2915   -1.8408 H         1 <0>         0.0934
     25 H4          0.0970    1.4317   -0.0701 H         1 <0>         0.0940
     26 H5         -2.6644   -3.1890   -0.4347 H         1 <0>         0.1261
     27 H6          2.0078   -4.8233   -0.5829 H         1 <0>         0.1370
     28 H7         -0.5462   -7.3605   -0.2261 H         1 <0>         0.3929
     29 H8          1.1035   -7.0669   -0.3487 H         1 <0>         0.4075
     30 H9         -2.2561   -6.7370   -0.1741 H         1 <0>         0.3992
     31 H10        -3.9340   -4.6205    0.6515 H         1 <0>         0.0759
     32 H11        -4.0407   -4.7626   -1.1195 H         1 <0>         0.0468
     33 H12        -4.6324   -6.4126    2.1055 H         1 <0>         0.0726
     34 H13        -5.2790   -7.9392    1.4578 H         1 <0>         0.0719
     35 H14        -3.5389   -7.5858    1.3335 H         1 <0>         0.0757
     36 H15        -6.8977   -6.8060    0.0851 H         1 <0>         0.1367
     37 H16        -6.3690   -5.1902    0.6122 H         1 <0>         0.1346
     38 H17        -5.4756   -6.8064   -2.7740 H         1 <0>         0.1332
     39 H18        -6.9869   -7.4420   -2.0466 H         1 <0>         0.1350
     40 H19        -6.6781   -5.3374   -4.2596 H         1 <0>         0.0979
     41 H20        -7.7518   -6.7747   -4.2322 H         1 <0>         0.1173
     42 H21        -8.5781   -4.2176   -3.4653 H         1 <0>         0.1057
     43 H22        -9.3188   -5.7244   -2.8462 H         1 <0>         0.1045
     44 H23        -8.4679   -5.2977   -0.7638 H         1 <0>         0.1319
     45 H24        -7.7604   -3.7746   -1.3729 H         1 <0>         0.1328
     46 H25        -5.7817   -4.7712   -1.7186 H         1 <0>         0.4246
@<TRIPOS>BOND
     1    1    2 1
     2    1   23 1
     3    1   24 1
     4    1   25 1
     5    2   10 1
     6    2    3 2
     7    3    4 1
     8    4    9 ar
     9    4    5 ar
    10    5    6 ar
    11    5   26 1
    12    6    7 ar
    13    6   12 1
    14    7    8 ar
    15    7   11 1
    16    8    9 ar
    17    8   27 1
    18    9   10 1
    19   11   28 1
    20   11   29 1
    21   12   13 1
    22   12   30 1
    23   13   14 1
    24   13   31 1
    25   13   32 1
    26   14   15 1
    27   14   16 1
    28   14   17 1
    29   16   33 1
    30   16   34 1
    31   16   35 1
    32   17   18 1
    33   17   36 1
    34   17   37 1
    35   18   22 1
    36   18   19 1
    37   18   46 1
    38   19   20 1
    39   19   38 1
    40   19   39 1
    41   20   21 1
    42   20   40 1
    43   20   41 1
    44   21   22 1
    45   21   42 1
    46   21   43 1
    47   22   44 1
    48   22   45 1
@<TRIPOS>MOLECULE
ZINC12498345
   64    69     0     0     0
SMALL
USER_CHARGES
methyl (3aS,4R,6R,6aS)-2-(1,3-benzodioxol-5-yl)-6-benzyl-4-(o-tolyl)-1,3-dioxo-3a,4,5,6a-tetrahydropyrrolo[3,4-c]pyrrole-6-carboxylate
@<TRIPOS>ATOM
      1 C1          6.4895    3.4096   -0.4264 C.3       1 <0>        -0.1271
      2 C2          6.1491    2.6956   -1.7091 C.ar      1 <0>        -0.0155
      3 C3          6.0974    3.3982   -2.8987 C.ar      1 <0>        -0.0985
      4 C4          5.7801    2.7443   -4.0742 C.ar      1 <0>        -0.0800
      5 C5          5.5190    1.3866   -4.0613 C.ar      1 <0>        -0.1028
      6 C6          5.5749    0.6834   -2.8728 C.ar      1 <0>        -0.1381
      7 C7          5.8928    1.3374   -1.6969 C.ar      1 <0>        -0.1624
      8 C8          5.9538    0.5707   -0.4010 C.3       1 <0>         0.1079
      9 H1          6.7611    0.9529    0.2238 H         1 <0>         0.1788
     10 C9          4.6288    0.6763    0.3328 C.3       1 <0>        -0.1447
     11 H2          4.7504    0.5755    1.4113 H         1 <0>         0.1702
     12 C10         3.8869   -0.5424   -0.3297 C.3       1 <0>        -0.1820
     13 H3          3.9082   -0.2873   -1.3893 H         1 <0>         0.1397
     14 C11         2.5089   -0.2695   -0.0170 C.2       1 <0>         0.5880
     15 O1          1.6283   -1.0749    0.1962 O.2       1 <0>        -0.4025
     16 N1          2.4046    1.0994   -0.0145 N.am      1 <0>        -0.5244
     17 C12         3.6209    1.7224   -0.0223 C.2       1 <0>         0.5545
     18 O2          3.8391    2.8892   -0.2684 O.2       1 <0>        -0.4034
     19 C13         1.1804    1.7854    0.0004 C.ar      1 <0>         0.1214
     20 C14        -0.0126    1.0758    0.0080 C.ar      1 <0>        -0.1223
     21 C15        -1.2188    1.7495    0.0173 C.ar      1 <0>        -0.0756
     22 C16        -1.2412    3.1349    0.0298 C.ar      1 <0>         0.0393
     23 C17        -0.0456    3.8495    0.0227 C.ar      1 <0>         0.0601
     24 C18         1.1627    3.1730    0.0080 C.ar      1 <0>        -0.1202
     25 O3         -0.3345    5.1836    0.0324 O.3       1 <0>        -0.3012
     26 C19        -1.7069    5.2769    0.4581 C.3       1 <0>         0.2118
     27 O4         -2.2793    4.0223    0.0441 O.3       1 <0>        -0.3007
     28 C20         4.8985   -1.6059   -0.2728 C.3       1 <0>         0.1408
     29 C21         4.5752   -2.7222   -1.2679 C.3       1 <0>        -0.0903
     30 C22         5.6965   -3.7290   -1.2752 C.ar      1 <0>        -0.1346
     31 C23         6.7552   -3.5781   -2.1511 C.ar      1 <0>        -0.1300
     32 C24         7.7857   -4.4995   -2.1550 C.ar      1 <0>        -0.1054
     33 C25         7.7534   -5.5763   -1.2888 C.ar      1 <0>        -0.0949
     34 C26         6.6920   -5.7301   -0.4166 C.ar      1 <0>        -0.1022
     35 C27         5.6635   -4.8066   -0.4099 C.ar      1 <0>        -0.0905
     36 C28         5.0175   -2.1565    1.1250 C.2       1 <0>         0.4525
     37 O5          4.0552   -2.1628    1.8557 O.2       1 <0>        -0.4280
     38 O6          6.1924   -2.6399    1.5582 O.3       1 <0>        -0.3533
     39 C29         6.2335   -3.1540    2.9155 C.3       1 <0>         0.0348
     40 H4          7.5690    3.3921   -0.2762 H         1 <0>         0.0815
     41 H5          6.1474    4.4429   -0.4839 H         1 <0>         0.0869
     42 H6          5.9984    2.9102    0.4088 H         1 <0>         0.0676
     43 H7          6.3017    4.4586   -2.9088 H         1 <0>         0.1408
     44 H8          5.7364    3.2938   -5.0030 H         1 <0>         0.1396
     45 H9          5.2710    0.8757   -4.9799 H         1 <0>         0.1389
     46 H10         5.3706   -0.3770   -2.8627 H         1 <0>         0.1116
     47 H11         0.0021   -0.0041    0.0020 H         1 <0>         0.1642
     48 H12        -2.1458    1.1953    0.0191 H         1 <0>         0.1513
     49 H13         2.0909    3.7251    0.0028 H         1 <0>         0.1618
     50 H14        -1.7654    5.3858    1.5410 H         1 <0>         0.0921
     51 H15        -2.2057    6.1100   -0.0371 H         1 <0>         0.1404
     52 H16         3.6476   -3.2135   -0.9740 H         1 <0>         0.1406
     53 H17         4.4613   -2.2980   -2.2655 H         1 <0>         0.1193
     54 H18         6.7788   -2.7386   -2.8302 H         1 <0>         0.1200
     55 H19         8.6147   -4.3795   -2.8368 H         1 <0>         0.1338
     56 H20         8.5572   -6.2977   -1.2938 H         1 <0>         0.1336
     57 H21         6.6666   -6.5716    0.2599 H         1 <0>         0.1331
     58 H22         4.8343   -4.9268    0.2715 H         1 <0>         0.1240
     59 H23         5.9685   -2.3596    3.6132 H         1 <0>         0.0766
     60 H24         5.5243   -3.9759    3.0143 H         1 <0>         0.0786
     61 H25         7.2385   -3.5126    3.1379 H         1 <0>         0.1203
     62 N2          6.1465   -0.8796   -0.6663 N.4       1 <0>        -0.5211
     63 H26         6.9390   -1.2299   -0.1154 H         1 <0>         0.4544
     64 H27         6.3322   -1.0270   -1.6653 H         1 <0>         0.4406
@<TRIPOS>BOND
     1    1    2 1
     2    1   40 1
     3    1   41 1
     4    1   42 1
     5    2    7 ar
     6    2    3 ar
     7    3    4 ar
     8    3   43 1
     9    4    5 ar
    10    4   44 1
    11    5    6 ar
    12    5   45 1
    13    6    7 ar
    14    6   46 1
    15    7    8 1
    16    8    9 1
    17    8   10 1
    18    8   62 1
    19   10   11 1
    20   10   17 1
    21   10   12 1
    22   12   13 1
    23   12   14 1
    24   12   28 1
    25   14   15 2
    26   14   16 am
    27   16   17 am
    28   16   19 1
    29   17   18 2
    30   19   24 ar
    31   19   20 ar
    32   20   21 ar
    33   20   47 1
    34   21   22 ar
    35   21   48 1
    36   22   27 1
    37   22   23 ar
    38   23   24 ar
    39   23   25 1
    40   24   49 1
    41   25   26 1
    42   26   27 1
    43   26   50 1
    44   26   51 1
    45   28   29 1
    46   28   36 1
    47   28   62 1
    48   29   30 1
    49   29   52 1
    50   29   53 1
    51   30   35 ar
    52   30   31 ar
    53   31   32 ar
    54   31   54 1
    55   32   33 ar
    56   32   55 1
    57   33   34 ar
    58   33   56 1
    59   34   35 ar
    60   34   57 1
    61   35   58 1
    62   36   37 2
    63   36   38 1
    64   38   39 1
    65   39   59 1
    66   39   60 1
    67   39   61 1
    68   62   63 1
    69   62   64 1
@<TRIPOS>MOLECULE
ZINC24875447
   59    63     0     0     0
SMALL
USER_CHARGES
6-chloro-2-[[4-(4-fluorophenyl)-5-[(1R)-1-(1-piperidyl)ethyl]-1,2,4-triazol-3-yl]sulfanylmethyl]-3H-quinazolin-4-one
@<TRIPOS>ATOM
      1 C1         -9.1483    9.0137   -1.3141 C.3       1 <0>        -0.1786
      2 C2         -8.6576    8.9910    0.1349 C.3       1 <0>         0.1379
      3 H1         -8.1902    9.9488    0.4074 H         1 <0>         0.1447
      4 C3         -7.6640    7.8718    0.3114 C.2       1 <0>         0.1234
      5 N1         -7.9359    6.5983    0.3614 N.2       1 <0>        -0.2484
      6 N2         -6.8553    5.9210    0.5197 N.2       1 <0>        -0.2790
      7 C4         -5.8242    6.7317    0.5801 C.2       1 <0>         0.1710
      8 N3         -6.3084    8.0046    0.4540 N.pl3     1 <0>        -0.3954
      9 C5         -5.5698    9.1978    0.4655 C.ar      1 <0>         0.0641
     10 C6         -5.7537   10.1190    1.4873 C.ar      1 <0>        -0.0770
     11 C7         -5.0214   11.2900    1.5003 C.ar      1 <0>        -0.1374
     12 C8         -4.1132   11.5509    0.4881 C.ar      1 <0>         0.1382
     13 C9         -3.9326   10.6356   -0.5352 C.ar      1 <0>        -0.1312
     14 C10        -4.6587    9.4607   -0.5481 C.ar      1 <0>        -0.0590
     15 F1         -3.4021   12.6996    0.4992 F         1 <0>        -0.1188
     16 S1         -4.1374    6.2680    0.7911 S.3       1 <0>         0.1464
     17 C11        -4.3151    4.4692    0.8841 C.3       1 <0>        -0.0952
     18 C12        -2.9587    3.8393    1.0698 C.2       1 <0>         0.4156
     19 N4         -2.8838    2.4858    1.1627 N.am      1 <0>        -0.6589
     20 H2         -3.7991    1.8788    1.1017 H         1 <0>         0.4527
     21 C13        -1.6895    1.8717    1.3304 C.2       1 <0>         0.5579
     22 O1         -1.6078    0.6602    1.4152 O.2       1 <0>        -0.4926
     23 C14        -0.4935    2.7247    1.3995 C.ar      1 <0>        -0.1841
     24 C15         0.7819    2.1924    1.5763 C.ar      1 <0>        -0.0305
     25 C16         1.8681    3.0391    1.6409 C.ar      1 <0>        -0.0503
     26 C17         1.6985    4.4147    1.5369 C.ar      1 <0>        -0.0614
     27 C18         0.4460    4.9598    1.3677 C.ar      1 <0>        -0.0923
     28 C19        -0.6696    4.1225    1.2993 C.ar      1 <0>         0.1565
     29 N5         -1.9217    4.6178    1.1333 N.2       1 <0>        -0.5165
     30 Cl1         3.4606    2.3818    1.8544 Cl        1 <0>        -0.0461
     31 N6         -9.7990    8.7791    1.0351 N.4       1 <0>        -0.3959
     32 C20       -10.7759    9.8684    0.9117 C.3       1 <0>        -0.0085
     33 C21       -12.0134    9.5431    1.7512 C.3       1 <0>        -0.1452
     34 C22       -11.5995    9.3670    3.2148 C.3       1 <0>        -0.1401
     35 C23       -10.5461    8.2598    3.3094 C.3       1 <0>        -0.1425
     36 C24        -9.3511    8.6223    2.4248 C.3       1 <0>        -0.0058
     37 H3         -9.8736    9.8307   -1.4428 H         1 <0>         0.0983
     38 H4         -9.6305    8.0543   -1.5530 H         1 <0>         0.0963
     39 H5         -8.2937    9.1725   -1.9882 H         1 <0>         0.1077
     40 H6         -6.4657    9.9181    2.2742 H         1 <0>         0.1365
     41 H7         -5.1608   12.0048    2.2979 H         1 <0>         0.1555
     42 H8         -3.2239   10.8407   -1.3239 H         1 <0>         0.1584
     43 H9         -4.5179    8.7473   -1.3466 H         1 <0>         0.1485
     44 H10        -4.9603    4.2081    1.7358 H         1 <0>         0.1389
     45 H11        -4.7680    4.0969   -0.0466 H         1 <0>         0.1396
     46 H12         0.9192    1.1243    1.6577 H         1 <0>         0.1524
     47 H13         2.5601    5.0638    1.5892 H         1 <0>         0.1499
     48 H14         0.3265    6.0301    1.2877 H         1 <0>         0.1515
     49 H15       -10.3265   10.8063    1.2700 H         1 <0>         0.1280
     50 H16       -11.0680    9.9813   -0.1428 H         1 <0>         0.1370
     51 H17       -12.7384   10.3664    1.6699 H         1 <0>         0.1154
     52 H18       -12.4718    8.6132    1.3836 H         1 <0>         0.0912
     53 H19       -11.1789   10.3105    3.5929 H         1 <0>         0.0812
     54 H20       -12.4798    9.0917    3.8142 H         1 <0>         0.0965
     55 H21       -10.2142    8.1577    4.3532 H         1 <0>         0.1121
     56 H22       -10.9818    7.3090    2.9685 H         1 <0>         0.0919
     57 H23        -8.5988    7.8216    2.4794 H         1 <0>         0.1228
     58 H24        -8.9084    9.5660    2.7761 H         1 <0>         0.1231
     59 H25       -10.2985    7.8457    0.7365 H         1 <0>         0.4498
@<TRIPOS>BOND
     1    1    2 1
     2    1   37 1
     3    1   38 1
     4    1   39 1
     5    2    3 1
     6    2    4 1
     7    2   31 1
     8    4    8 1
     9    4    5 2
    10    5    6 1
    11    6    7 2
    12    7    8 1
    13    7   16 1
    14    8    9 1
    15    9   14 ar
    16    9   10 ar
    17   10   11 ar
    18   10   40 1
    19   11   12 ar
    20   11   41 1
    21   12   13 ar
    22   12   15 1
    23   13   14 ar
    24   13   42 1
    25   14   43 1
    26   16   17 1
    27   17   18 1
    28   17   44 1
    29   17   45 1
    30   18   29 2
    31   18   19 1
    32   19   20 1
    33   19   21 am
    34   21   22 2
    35   21   23 1
    36   23   28 ar
    37   23   24 ar
    38   24   25 ar
    39   24   46 1
    40   25   26 ar
    41   25   30 1
    42   26   27 ar
    43   26   47 1
    44   27   28 ar
    45   27   48 1
    46   28   29 1
    47   31   36 1
    48   31   32 1
    49   31   59 1
    50   32   33 1
    51   32   49 1
    52   32   50 1
    53   33   34 1
    54   33   51 1
    55   33   52 1
    56   34   35 1
    57   34   53 1
    58   34   54 1
    59   35   36 1
    60   35   55 1
    61   35   56 1
    62   36   57 1
    63   36   58 1
@<TRIPOS>MOLECULE
ZINC39154583
   47    51     0     0     0
SMALL
USER_CHARGES

@<TRIPOS>ATOM
      1 C1         -0.0163    1.3483    0.0095 C.ar      1 <0>        -0.0963
      2 C2          1.1564    2.1160    0.0024 C.ar      1 <0>         0.0374
      3 C3          2.3818    1.5445   -0.0189 C.ar      1 <0>        -0.1766
      4 C4          2.4904    0.0806   -0.0345 C.ar      1 <0>         0.3302
      5 N1          3.5303   -0.7190   -0.0237 N.pl3     1 <0>        -0.5261
      6 C5          3.0698   -2.0890   -0.1745 C.3       1 <0>         0.2333
      7 H1          3.3235   -2.4567   -1.1687 H         1 <0>         0.2031
      8 C6          1.5607   -2.0383   -0.0138 C.2       1 <0>         0.0293
      9 C7          1.2300   -0.7045   -0.0140 C.ar      1 <0>        -0.0258
     10 C8          0.0021   -0.0041    0.0020 C.ar      1 <0>        -0.0550
     11 N2          0.8416   -3.1390    0.2199 N.2       1 <0>        -0.0426
     12 N3          1.4730   -4.1020    0.8207 N.2       1 <0>        -0.1001
     13 C9          2.7548   -3.9706    1.2416 C.2       1 <0>         0.2180
     14 N4          3.5653   -3.0189    0.8389 N.2       1 <0>        -0.5073
     15 S1          3.3731   -5.1500    2.3955 S.3       1 <0>         0.2450
     16 C10         5.0839   -4.6226    2.6879 C.3       1 <0>        -0.1762
     17 C11         5.7374   -5.5597    3.6707 C.2       1 <0>         0.5299
     18 O1          5.1106   -6.4917    4.1288 O.2       1 <0>        -0.4458
     19 N5          7.0182   -5.3622    4.0407 N.am      1 <0>        -0.6020
     20 C12         7.6222   -6.2282    4.9489 C.2       1 <0>         0.2598
     21 N6          7.1343   -7.2957    5.5593 N.2       1 <0>        -0.2593
     22 N7          7.8241   -7.9795    6.3639 N.2       1 <0>        -0.2617
     23 C13         9.0810   -7.6702    6.6473 C.2       1 <0>         0.0232
     24 S2          9.2831   -6.2193    5.6177 S.3       1 <0>         0.0618
     25 S3         10.2275   -8.4635    7.7247 S.3       1 <0>         0.0725
     26 C14         9.2949   -9.8630    8.4044 C.3       1 <0>        -0.0724
     27 C15        10.1717  -10.6365    9.3553 C.ar      1 <0>        -0.0858
     28 C16        10.9519  -11.6763    8.8851 C.ar      1 <0>        -0.0833
     29 C17        11.7562  -12.3861    9.7566 C.ar      1 <0>        -0.1092
     30 C18        11.7803  -12.0557   11.0999 C.ar      1 <0>        -0.0224
     31 C19        10.9992  -11.0150   11.5699 C.ar      1 <0>        -0.1093
     32 C20        10.1996  -10.3023   10.6964 C.ar      1 <0>        -0.0834
     33 Cl1        12.7898  -12.9471   12.1954 Cl        1 <0>        -0.0592
     34 H2         -0.9697    1.8553    0.0259 H         1 <0>         0.1679
     35 H3          1.0792    3.1932    0.0139 H         1 <0>         0.1749
     36 H4          3.2705    2.1582   -0.0247 H         1 <0>         0.1757
     37 H5         -0.9281   -0.5528    0.0084 H         1 <0>         0.1715
     38 H6          5.6352   -4.6398    1.7478 H         1 <0>         0.1459
     39 H7          5.0879   -3.6107    3.0930 H         1 <0>         0.1418
     40 H8          7.5195   -4.6169    3.6743 H         1 <0>         0.4325
     41 H9          8.4197   -9.4918    8.9375 H         1 <0>         0.1130
     42 H10         8.9757  -10.5158    7.5919 H         1 <0>         0.1132
     43 H11        10.9327  -11.9343    7.8365 H         1 <0>         0.1380
     44 H12        12.3654  -13.1986    9.3892 H         1 <0>         0.1401
     45 H13        11.0174  -10.7569   12.6185 H         1 <0>         0.1400
     46 H14         9.5934   -9.4868   11.0623 H         1 <0>         0.1379
     47 H15         4.4550   -0.4413    0.0697 H         1 <0>         0.4638
@<TRIPOS>BOND
     1    1   10 ar
     2    1    2 ar
     3    1   34 1
     4    2    3 ar
     5    2   35 1
     6    3    4 ar
     7    3   36 1
     8    4    9 ar
     9    4    5 2
    10    5    6 1
    11    5   47 1
    12    6    7 1
    13    6   14 1
    14    6    8 1
    15    8    9 2
    16    8   11 1
    17    9   10 ar
    18   10   37 1
    19   11   12 2
    20   12   13 1
    21   13   14 2
    22   13   15 1
    23   15   16 1
    24   16   17 1
    25   16   38 1
    26   16   39 1
    27   17   18 2
    28   17   19 am
    29   19   20 1
    30   19   40 1
    31   20   24 1
    32   20   21 2
    33   21   22 1
    34   22   23 2
    35   23   24 1
    36   23   25 1
    37   25   26 1
    38   26   27 1
    39   26   41 1
    40   26   42 1
    41   27   32 ar
    42   27   28 ar
    43   28   29 ar
    44   28   43 1
    45   29   30 ar
    46   29   44 1
    47   30   31 ar
    48   30   33 1
    49   31   32 ar
    50   31   45 1
    51   32   46 1
@<TRIPOS>MOLECULE
ZINC19798495
   54    59     0     0     0
SMALL
USER_CHARGES

@<TRIPOS>ATOM
      1 C1          0.8593    2.2870    0.7149 C.ar      1 <0>        -0.1241
      2 C2          2.0832    2.8804    0.9633 C.ar      1 <0>        -0.0712
      3 C3          3.2358    2.1184    0.9532 C.ar      1 <0>        -0.1510
      4 C4          3.1648    0.7599    0.6942 C.ar      1 <0>         0.1151
      5 C5          1.9389    0.1668    0.4457 C.ar      1 <0>        -0.1640
      6 C6          0.7872    0.9311    0.4563 C.ar      1 <0>        -0.0667
      7 C7          1.8600   -1.3114    0.1632 C.3       1 <0>         0.1361
      8 N1          1.8018   -2.0479    1.4283 N.pl3     1 <0>        -0.4265
      9 C8          2.8707   -2.5729    2.0587 C.2       1 <0>         0.2270
     10 C9          2.4613   -3.1978    3.2211 C.2       1 <0>        -0.2511
     11 C10         0.9962   -3.0249    3.2862 C.ar      1 <0>        -0.0527
     12 C11         0.6449   -2.2938    2.1405 C.ar      1 <0>         0.0746
     13 C12        -0.6897   -1.9668    1.9242 C.ar      1 <0>        -0.0987
     14 C13        -1.6499   -2.3580    2.8323 C.ar      1 <0>        -0.0966
     15 C14        -1.2999   -3.0772    3.9651 C.ar      1 <0>        -0.1075
     16 C15         0.0167   -3.4172    4.1929 C.ar      1 <0>        -0.0888
     17 C16         3.2797   -3.8678    4.1586 C.2       1 <0>         0.2236
     18 C17         4.3913   -4.5697    3.7290 C.2       1 <0>        -0.3757
     19 C18         5.3750   -5.1423    4.6876 C.cat     1 <0>         0.6331
     20 N2          5.0456   -5.5965    5.8691 N.pl3     1 <0>        -0.6924
     21 N3          6.6981   -5.1471    4.1968 N.pl3     1 <0>        -0.4134
     22 C19         6.8695   -5.1214    2.8286 C.2       1 <0>         0.3774
     23 N4          5.9436   -4.9957    1.9120 N.2       1 <0>        -0.4974
     24 C20         4.6625   -4.7966    2.2905 C.2       1 <0>         0.5539
     25 O1          3.7557   -4.7994    1.4732 O.2       1 <0>        -0.4169
     26 S1          8.6285   -5.2772    2.6677 S.3       1 <0>         0.1855
     27 C21         9.0269   -5.2647    4.4102 C.2       1 <0>         0.2105
     28 N5          7.8417   -5.1864    4.9657 N.2       1 <0>        -0.2715
     29 C22        10.3547   -5.3269    5.0598 C.ar      1 <0>        -0.0454
     30 C23        11.5116   -5.4017    4.2836 C.ar      1 <0>        -0.0561
     31 C24        12.7468   -5.4594    4.8951 C.ar      1 <0>        -0.1075
     32 C25        12.8407   -5.4433    6.2756 C.ar      1 <0>        -0.0549
     33 C26        11.6985   -5.3692    7.0517 C.ar      1 <0>        -0.1094
     34 C27        10.4558   -5.3051    6.4519 C.ar      1 <0>         0.0183
     35 Cl1         9.0230   -5.2049    7.4270 Cl        1 <0>        -0.0373
     36 F1          4.2912    0.0140    0.6836 F         1 <0>        -0.1382
     37 H1         -0.0416    2.8825    0.7274 H         1 <0>         0.1391
     38 H2          2.1383    3.9400    1.1649 H         1 <0>         0.1414
     39 H3          4.1917    2.5822    1.1468 H         1 <0>         0.1423
     40 H4         -0.1694    0.4685    0.2629 H         1 <0>         0.1358
     41 H5          0.9647   -1.5223   -0.4216 H         1 <0>         0.1195
     42 H6          2.7417   -1.6216   -0.3976 H         1 <0>         0.1162
     43 H7          3.8908   -2.5145    1.7089 H         1 <0>         0.1813
     44 H8         -0.9732   -1.4067    1.0454 H         1 <0>         0.1289
     45 H9         -2.6848   -2.1015    2.6603 H         1 <0>         0.1384
     46 H10        -2.0623   -3.3771    4.6687 H         1 <0>         0.1360
     47 H11         0.2876   -3.9764    5.0763 H         1 <0>         0.1287
     48 H12         3.0370   -3.8318    5.2103 H         1 <0>         0.1518
     49 H13         4.1201   -5.5699    6.1582 H         1 <0>         0.4536
     50 H14        11.4402   -5.4148    3.2060 H         1 <0>         0.1454
     51 H15        13.6428   -5.5177    4.2949 H         1 <0>         0.1524
     52 H16        13.8104   -5.4891    6.7491 H         1 <0>         0.1517
     53 H17        11.7785   -5.3574    8.1287 H         1 <0>         0.1528
     54 H18         5.7269   -5.9601    6.4561 H         1 <0>         0.4448
@<TRIPOS>BOND
     1    1    6 ar
     2    1    2 ar
     3    1   37 1
     4    2    3 ar
     5    2   38 1
     6    3    4 ar
     7    3   39 1
     8    4    5 ar
     9    4   36 1
    10    5    6 ar
    11    5    7 1
    12    6   40 1
    13    7    8 1
    14    7   41 1
    15    7   42 1
    16    8   12 1
    17    8    9 1
    18    9   10 2
    19    9   43 1
    20   10   11 1
    21   10   17 1
    22   11   16 ar
    23   11   12 ar
    24   12   13 ar
    25   13   14 ar
    26   13   44 1
    27   14   15 ar
    28   14   45 1
    29   15   16 ar
    30   15   46 1
    31   16   47 1
    32   17   18 2
    33   17   48 1
    34   18   24 1
    35   18   19 1
    36   19   20 2
    37   19   21 1
    38   20   49 1
    39   20   54 1
    40   21   28 1
    41   21   22 1
    42   22   23 2
    43   22   26 1
    44   23   24 1
    45   24   25 2
    46   26   27 1
    47   27   28 2
    48   27   29 1
    49   29   34 ar
    50   29   30 ar
    51   30   31 ar
    52   30   50 1
    53   31   32 ar
    54   31   51 1
    55   32   33 ar
    56   32   52 1
    57   33   34 ar
    58   33   53 1
    59   34   35 1
@<TRIPOS>MOLECULE
ZINC38974931
   57    61     0     0     0
SMALL
USER_CHARGES

@<TRIPOS>ATOM
      1 C1          1.3865    1.5696    2.2681 C.3       1 <0>        -0.1575
      2 C2          1.2395    0.0528    2.4044 C.3       1 <0>        -0.1155
      3 C3          0.5509   -0.5070    1.1581 C.3       1 <0>        -0.0546
      4 H1          1.1038   -0.2021    0.2696 H         1 <0>         0.0811
      5 C4         -0.8786    0.0327    1.0794 C.3       1 <0>        -0.1470
      6 C5          0.5161   -2.0116    1.2364 C.ar      1 <0>        -0.0949
      7 C6         -0.1397   -2.6329    2.2833 C.ar      1 <0>        -0.0665
      8 C7         -0.1735   -4.0115    2.3581 C.ar      1 <0>        -0.1854
      9 C8          0.4523   -4.7741    1.3801 C.ar      1 <0>         0.1713
     10 C9          1.1102   -4.1467    0.3297 C.ar      1 <0>        -0.1533
     11 C10         1.1353   -2.7677    0.2580 C.ar      1 <0>        -0.0689
     12 N1          0.4205   -6.1686    1.4529 N.pl3     1 <0>        -0.7179
     13 C11        -0.1160   -6.8277    2.6461 C.3       1 <0>         0.3113
     14 H2         -0.2197   -6.0694    3.4222 H         1 <0>         0.1883
     15 C12         0.9094   -7.8337    3.1180 C.2       1 <0>         0.4374
     16 N2          2.1154   -7.4537    3.4214 N.2       1 <0>        -0.8168
     17 S1          3.2289   -8.5657    3.9370 S.o2      1 <0>         2.6379
     18 O1          2.7699   -9.0481    5.1923 O.2       1 <0>        -0.9345
     19 O2          3.4820   -9.4276    2.8359 O.2       1 <0>        -0.9146
     20 C13         4.7284   -7.6949    4.2499 C.ar      1 <0>        -0.6284
     21 C14         5.2207   -7.6281    5.5092 C.ar      1 <0>         0.0618
     22 C15         6.4048   -6.9481    5.7937 C.ar      1 <0>        -0.1327
     23 C16         7.1132   -6.3249    4.8230 C.ar      1 <0>         0.0161
     24 C17         6.6570   -6.3530    3.4774 C.ar      1 <0>         0.0481
     25 C18         5.4219   -7.0690    3.1790 C.ar      1 <0>         0.1299
     26 N3          5.0944   -7.0334    1.8866 N.2       1 <0>        -0.5201
     27 S2          6.2553   -6.1827    1.1676 S.3       1 <0>         0.6838
     28 N4          7.2169   -5.8015    2.3998 N.2       1 <0>        -0.4807
     29 N5          0.5563   -9.1250    3.2198 N.2       1 <0>        -0.4535
     30 C19        -0.6583   -9.5345    2.9190 C.ar      1 <0>         0.2845
     31 C20        -0.9966  -10.9064    3.0382 C.ar      1 <0>        -0.0824
     32 C21        -2.2411  -11.3321    2.7306 C.ar      1 <0>        -0.0660
     33 C22        -3.2523  -10.4648    2.2848 C.ar      1 <0>         0.0523
     34 C23        -3.0366   -9.1394    2.1356 C.ar      1 <0>        -0.2039
     35 C24        -1.7072   -8.5956    2.4503 C.ar      1 <0>         0.3321
     36 N6         -1.4625   -7.3224    2.3188 N.pl3     1 <0>        -0.5132
     37 H3          0.4005    2.0222    2.1636 H         1 <0>         0.0592
     38 H4          1.8771    1.9683    3.1560 H         1 <0>         0.0570
     39 H5          1.9867    1.7987    1.3875 H         1 <0>         0.0560
     40 H6          2.2255   -0.3999    2.5089 H         1 <0>         0.0619
     41 H7          0.6393   -0.1764    3.2850 H         1 <0>         0.0625
     42 H8         -1.3692   -0.3660    0.1915 H         1 <0>         0.0558
     43 H9         -1.4315   -0.2722    1.9679 H         1 <0>         0.0554
     44 H10        -0.8535    1.1210    1.0228 H         1 <0>         0.0655
     45 H11        -0.6257   -2.0394    3.0436 H         1 <0>         0.1307
     46 H12        -0.6855   -4.4962    3.1762 H         1 <0>         0.1155
     47 H13         1.5980   -4.7366   -0.4321 H         1 <0>         0.1286
     48 H14         1.6428   -2.2793   -0.5607 H         1 <0>         0.1326
     49 H15         0.7536   -6.7006    0.7133 H         1 <0>         0.4177
     50 H16         4.6841   -8.1121    6.3118 H         1 <0>         0.1643
     51 H17         6.7645   -6.9178    6.8116 H         1 <0>         0.1616
     52 H18         8.0266   -5.8050    5.0717 H         1 <0>         0.1598
     53 H19        -0.2549  -11.6149    3.3765 H         1 <0>         0.1879
     54 H20        -2.4681  -12.3832    2.8313 H         1 <0>         0.1775
     55 H21        -4.2275  -10.8681    2.0551 H         1 <0>         0.1810
     56 H22        -3.8277   -8.4900    1.7908 H         1 <0>         0.1849
     57 H23        -2.1533   -6.7143    2.0122 H         1 <0>         0.4566
@<TRIPOS>BOND
     1    1    2 1
     2    1   37 1
     3    1   38 1
     4    1   39 1
     5    2    3 1
     6    2   40 1
     7    2   41 1
     8    3    4 1
     9    3    5 1
    10    3    6 1
    11    5   42 1
    12    5   43 1
    13    5   44 1
    14    6   11 ar
    15    6    7 ar
    16    7    8 ar
    17    7   45 1
    18    8    9 ar
    19    8   46 1
    20    9   10 ar
    21    9   12 1
    22   10   11 ar
    23   10   47 1
    24   11   48 1
    25   12   13 1
    26   12   49 1
    27   13   14 1
    28   13   36 1
    29   13   15 1
    30   15   16 2
    31   15   29 1
    32   16   17 1
    33   17   18 2
    34   17   19 2
    35   17   20 1
    36   20   25 ar
    37   20   21 ar
    38   21   22 ar
    39   21   50 1
    40   22   23 ar
    41   22   51 1
    42   23   24 ar
    43   23   52 1
    44   24   28 2
    45   24   25 ar
    46   25   26 2
    47   26   27 1
    48   27   28 1
    49   29   30 2
    50   30   35 ar
    51   30   31 ar
    52   31   32 ar
    53   31   53 1
    54   32   33 ar
    55   32   54 1
    56   33   34 ar
    57   33   55 1
    58   34   35 ar
    59   34   56 1
    60   35   36 2
    61   36   57 1
@<TRIPOS>MOLECULE
ZINC11667694
   69    72     0     0     0
SMALL
USER_CHARGES
methyl 2-[[4-[[(3R,5R)-3,5-dimethyl-1-piperidyl]sulfonyl]benzoyl]amino]-6-ethyl-5,7-dihydro-4H-thieno[5,4-c]pyridine-3-carboxylate
@<TRIPOS>ATOM
      1 C1        -14.3598   -4.1732   -0.3650 C.3       1 <0>        -0.1898
      2 C2        -14.8882   -2.7597   -0.6171 C.3       1 <0>        -0.0044
      3 C3        -13.1528   -2.4376   -2.2753 C.3       1 <0>         0.0009
      4 C4        -12.2800   -1.3661   -2.9352 C.3       1 <0>        -0.0925
      5 C5        -11.3478   -0.7931   -1.8741 C.2       1 <0>        -0.0351
      6 C6        -11.6189   -0.9769   -0.5622 C.2       1 <0>        -0.3158
      7 S1        -10.3008   -0.1618    0.2900 S.3       1 <0>         0.3443
      8 C7         -9.4008    0.4165   -1.0736 C.2       1 <0>         0.1097
      9 C8        -10.1464   -0.0306   -2.1583 C.2       1 <0>        -0.2151
     10 C9         -9.7331    0.2530   -3.5341 C.2       1 <0>         0.5195
     11 O1         -9.0029   -0.5223   -4.1218 O.2       1 <0>        -0.4805
     12 O2        -10.1620    1.3739   -4.1497 O.3       1 <0>        -0.3502
     13 C10        -9.7124    1.5903   -5.5132 C.3       1 <0>         0.0293
     14 N1         -8.2269    1.1511   -1.0807 N.am      1 <0>        -0.6154
     15 C11        -7.6443    1.5019    0.0829 C.2       1 <0>         0.5629
     16 O3         -8.1494    1.1735    1.1387 O.2       1 <0>        -0.4801
     17 C12        -6.3915    2.2859    0.0753 C.ar      1 <0>        -0.0926
     18 C13        -5.7855    2.6509    1.2788 C.ar      1 <0>        -0.0661
     19 C14        -4.6160    3.3823    1.2645 C.ar      1 <0>        -0.0215
     20 C15        -4.0435    3.7540    0.0610 C.ar      1 <0>        -0.6430
     21 C16        -4.6419    3.4003   -1.1354 C.ar      1 <0>        -0.0203
     22 C17        -5.8086    2.6642   -1.1355 C.ar      1 <0>        -0.1027
     23 S2         -2.5495    4.6881    0.0519 S.o2      1 <0>         2.6832
     24 O4         -2.4853    5.3636    1.3004 O.2       1 <0>        -0.9431
     25 O5         -2.5090    5.3774   -1.1901 O.2       1 <0>        -0.9443
     26 N2         -1.2958    3.6064    0.0339 N.pl3     1 <0>        -0.9902
     27 C18        -0.7411    3.1244   -1.2383 C.3       1 <0>         0.1217
     28 C19        -0.7523    1.5925   -1.2323 C.3       1 <0>        -0.1078
     29 H1         -0.2558    1.2215   -2.1289 H         1 <0>         0.0869
     30 C20        -0.0127    1.0858    0.0080 C.3       1 <0>        -0.1089
     31 C21        -0.7285    1.5791    1.2676 C.3       1 <0>        -0.1089
     32 H2         -1.7587    1.2231    1.2636 H         1 <0>         0.0764
     33 C22        -0.7166    3.1108    1.2900 C.3       1 <0>         0.1212
     34 C23        -0.0076    1.0449    2.5069 C.3       1 <0>        -0.1497
     35 C24        -2.1981    1.0926   -1.2045 C.3       1 <0>        -0.1548
     36 C25       -12.7902   -1.7136    0.0083 C.3       1 <0>         0.1050
     37 H3        -13.9368   -4.5728   -1.2867 H         1 <0>         0.0810
     38 H4        -13.5886   -4.1409    0.4046 H         1 <0>         0.0802
     39 H5        -15.1775   -4.8130   -0.0332 H         1 <0>         0.1074
     40 H6        -15.3112   -2.3601    0.3046 H         1 <0>         0.1328
     41 H7        -15.6594   -2.7920   -1.3867 H         1 <0>         0.1328
     42 H8        -12.5338   -3.2940   -2.0082 H         1 <0>         0.1360
     43 H9        -13.9250   -2.7543   -2.9764 H         1 <0>         0.1392
     44 H10       -11.6933   -1.8127   -3.7380 H         1 <0>         0.1230
     45 H11       -12.9113   -0.5736   -3.3371 H         1 <0>         0.1106
     46 H12       -10.1288    2.5249   -5.8891 H         1 <0>         0.1110
     47 H13        -8.6239    1.6437   -5.5328 H         1 <0>         0.0687
     48 H14       -10.0470    0.7648   -6.1415 H         1 <0>         0.0691
     49 H15        -7.8238    1.4131   -1.9232 H         1 <0>         0.4264
     50 H16        -6.2312    2.3611    2.2189 H         1 <0>         0.1529
     51 H17        -4.1463    3.6656    2.1949 H         1 <0>         0.1549
     52 H18        -4.1922    3.6975   -2.0713 H         1 <0>         0.1525
     53 H19        -6.2721    2.3847   -2.0700 H         1 <0>         0.1330
     54 H20         0.2826    3.4818   -1.3494 H         1 <0>         0.0824
     55 H21        -1.3500    3.4910   -2.0647 H         1 <0>         0.0913
     56 H22         0.0021   -0.0041    0.0020 H         1 <0>         0.0672
     57 H23         1.0100    1.4629    0.0003 H         1 <0>         0.0691
     58 H24         0.3091    3.4671    1.3851 H         1 <0>         0.0821
     59 H25        -1.3080    3.4706    2.1320 H         1 <0>         0.0916
     60 H26         1.0220    1.4026    2.5107 H         1 <0>         0.0604
     61 H27        -0.5178    1.3965    3.4037 H         1 <0>         0.0588
     62 H28        -0.0136   -0.0450    2.4891 H         1 <0>         0.0599
     63 H29        -2.6942    1.4652   -0.3083 H         1 <0>         0.0574
     64 H30        -2.7245    1.4537   -2.0880 H         1 <0>         0.0528
     65 H31        -2.2056    0.0026   -1.1973 H         1 <0>         0.0584
     66 H32       -12.4672   -2.6858    0.3807 H         1 <0>         0.1463
     67 H33       -13.2281   -1.1347    0.8215 H         1 <0>         0.1440
     68 N3        -13.7953   -1.8728   -1.0708 N.4       1 <0>        -0.3951
     69 H34       -14.1868   -0.9521   -1.3014 H         1 <0>         0.4335
@<TRIPOS>BOND
     1    1    2 1
     2    1   37 1
     3    1   38 1
     4    1   39 1
     5    2   40 1
     6    2   41 1
     7    2   68 1
     8    3    4 1
     9    3   42 1
    10    3   43 1
    11    3   68 1
    12    4    5 1
    13    4   44 1
    14    4   45 1
    15    5    9 1
    16    5    6 2
    17    6    7 1
    18    6   36 1
    19    7    8 1
    20    8    9 2
    21    8   14 1
    22    9   10 1
    23   10   11 2
    24   10   12 1
    25   12   13 1
    26   13   46 1
    27   13   47 1
    28   13   48 1
    29   14   15 am
    30   14   49 1
    31   15   16 2
    32   15   17 1
    33   17   22 ar
    34   17   18 ar
    35   18   19 ar
    36   18   50 1
    37   19   20 ar
    38   19   51 1
    39   20   21 ar
    40   20   23 1
    41   21   22 ar
    42   21   52 1
    43   22   53 1
    44   23   24 2
    45   23   25 2
    46   23   26 1
    47   26   33 1
    48   26   27 1
    49   27   28 1
    50   27   54 1
    51   27   55 1
    52   28   29 1
    53   28   30 1
    54   28   35 1
    55   30   31 1
    56   30   56 1
    57   30   57 1
    58   31   32 1
    59   31   33 1
    60   31   34 1
    61   33   58 1
    62   33   59 1
    63   34   60 1
    64   34   61 1
    65   34   62 1
    66   35   63 1
    67   35   64 1
    68   35   65 1
    69   36   66 1
    70   36   67 1
    71   36   68 1
    72   68   69 1
@<TRIPOS>MOLECULE
ZINC34747070
   78    82     0     0     0
SMALL
USER_CHARGES

@<TRIPOS>ATOM
      1 C1         -4.4166    0.9929    2.7609 C.3       1 <0>        -0.1474
      2 C2         -3.9607   -0.2198    1.9470 C.3       1 <0>        -0.1065
      3 C3         -4.9234   -0.4410    0.7786 C.3       1 <0>        -0.1462
      4 C4         -2.5513    0.0294    1.4064 C.3       1 <0>         0.0939
      5 N1         -1.6089    0.1224    2.5242 N.am      1 <0>        -0.5214
      6 C5         -1.3397    1.3263    3.0617 C.2       1 <0>         0.5563
      7 O1         -1.8740    2.3312    2.6248 O.2       1 <0>        -0.5008
      8 C6         -0.4182    1.4111    4.1533 C.2       1 <0>        -0.2288
      9 C7          0.0200    2.5986    4.8833 C.2       1 <0>        -0.0422
     10 C8          0.9072    2.4126    5.8847 C.2       1 <0>        -0.2106
     11 S1          1.2066    0.6685    5.9148 S.3       1 <0>         0.1880
     12 C9          0.1387    0.1922    4.5785 C.2       1 <0>         0.0919
     13 N2         -0.1700   -0.9641    4.0030 N.2       1 <0>        -0.4783
     14 C10        -1.0258   -1.0134    3.0033 C.2       1 <0>         0.6205
     15 N3         -1.3306   -2.2238    2.4320 N.pl3     1 <0>        -0.6521
     16 C11        -0.5224   -2.7640    1.3279 C.3       1 <0>         0.1198
     17 C12        -0.1352   -4.2065    1.6699 C.3       1 <0>        -0.0206
     18 N4         -1.3471   -4.9799    1.9687 N.4       1 <0>        -0.3681
     19 C13        -1.9950   -4.4483    3.1744 C.3       1 <0>        -0.0307
     20 C14        -2.4710   -3.0204    2.9106 C.3       1 <0>         0.1220
     21 C15        -0.9862   -6.3867    2.1887 C.3       1 <0>        -0.0324
     22 C16        -2.2389   -7.2037    2.3739 C.2       1 <0>         0.5010
     23 O2         -3.3254   -6.6668    2.3272 O.2       1 <0>        -0.5273
     24 N5         -2.1519   -8.5309    2.5914 N.am      1 <0>        -0.6980
     25 C17        -3.3697   -9.3251    2.7715 C.3       1 <0>         0.1418
     26 C18        -3.8078   -9.2621    4.2361 C.3       1 <0>        -0.1278
     27 C19        -5.0797  -10.0915    4.4241 C.3       1 <0>        -0.1192
     28 C20        -4.8023  -11.5455    4.0367 C.3       1 <0>        -0.1265
     29 C21        -4.3642  -11.6084    2.5722 C.3       1 <0>        -0.1181
     30 C22        -3.0924  -10.7790    2.3842 C.3       1 <0>        -0.1282
     31 C23         1.4917    3.4778    6.7599 C.3       1 <0>         0.1424
     32 O3          1.2037    4.7503    6.1589 O.3       1 <0>        -0.3556
     33 C24        -0.1650    4.9012    5.7723 C.3       1 <0>         0.1077
     34 C25        -0.4744    4.0081    4.5673 C.3       1 <0>        -0.0784
     35 C26        -1.0689    4.5056    6.9417 C.3       1 <0>        -0.1818
     36 C27        -0.4294    6.3620    5.4022 C.3       1 <0>        -0.1402
     37 H1         -4.4230    1.8769    2.1232 H         1 <0>         0.0685
     38 H2         -5.4207    0.8154    3.1461 H         1 <0>         0.0590
     39 H3         -3.7307    1.1505    3.5933 H         1 <0>         0.0473
     40 H4         -3.9542   -1.1038    2.5848 H         1 <0>         0.0678
     41 H5         -4.9299    0.4430    0.1409 H         1 <0>         0.0646
     42 H6         -4.5987   -1.3049    0.1988 H         1 <0>         0.0551
     43 H7         -5.9275   -0.6185    1.1638 H         1 <0>         0.0668
     44 H8         -2.2613   -0.7945    0.7543 H         1 <0>         0.0908
     45 H9         -2.5383    0.9616    0.8417 H         1 <0>         0.1072
     46 H10        -1.1048   -2.7497    0.4066 H         1 <0>         0.0952
     47 H11         0.3781   -2.1624    1.2047 H         1 <0>         0.1243
     48 H12         0.3821   -4.6548    0.8217 H         1 <0>         0.1459
     49 H13         0.5218   -4.2100    2.5396 H         1 <0>         0.1418
     50 H14        -2.8481   -5.0748    3.4348 H         1 <0>         0.1592
     51 H15        -1.2817   -4.4444    3.9986 H         1 <0>         0.1354
     52 H16        -2.8581   -2.5882    3.8334 H         1 <0>         0.1208
     53 H17        -3.2535   -3.0324    2.1519 H         1 <0>         0.0971
     54 H18        -0.4336   -6.7593    1.3262 H         1 <0>         0.1622
     55 H19        -0.3648   -6.4672    3.0806 H         1 <0>         0.1605
     56 H20        -1.2829   -8.9603    2.6288 H         1 <0>         0.4102
     57 H21        -4.1614   -8.9250    2.1379 H         1 <0>         0.0976
     58 H22        -3.0162   -9.6622    4.8696 H         1 <0>         0.0680
     59 H23        -4.0054   -8.2263    4.5120 H         1 <0>         0.0658
     60 H24        -5.3918  -10.0467    5.4675 H         1 <0>         0.0710
     61 H25        -5.8713   -9.6914    3.7905 H         1 <0>         0.0667
     62 H26        -4.0107  -11.9456    4.6703 H         1 <0>         0.0655
     63 H27        -5.7084  -12.1363    4.1707 H         1 <0>         0.0706
     64 H28        -4.1666  -12.6442    2.2962 H         1 <0>         0.0744
     65 H29        -5.1559  -11.2083    1.9386 H         1 <0>         0.0677
     66 H30        -2.7803  -10.8239    1.3407 H         1 <0>         0.0719
     67 H31        -2.3007  -11.1791    3.0177 H         1 <0>         0.0727
     68 H32         1.0422    3.4281    7.7516 H         1 <0>         0.0836
     69 H33         2.5705    3.3417    6.8360 H         1 <0>         0.1163
     70 H34         0.0399    4.3896    3.6851 H         1 <0>         0.0907
     71 H35        -1.5494    3.9898    4.3885 H         1 <0>         0.0975
     72 H36        -0.8588    5.1481    7.7967 H         1 <0>         0.0706
     73 H37        -2.1126    4.6199    6.6490 H         1 <0>         0.0704
     74 H38        -0.8791    3.4669    7.2124 H         1 <0>         0.0600
     75 H39         0.2172    6.6495    4.5732 H         1 <0>         0.0672
     76 H40        -1.4721    6.4791    5.1073 H         1 <0>         0.0751
     77 H41        -0.2215    6.9981    6.2626 H         1 <0>         0.0698
     78 H42        -1.9854   -4.9168    1.1898 H         1 <0>         0.4293
@<TRIPOS>BOND
     1    1    2 1
     2    1   37 1
     3    1   38 1
     4    1   39 1
     5    2    3 1
     6    2    4 1
     7    2   40 1
     8    3   41 1
     9    3   42 1
    10    3   43 1
    11    4    5 1
    12    4   44 1
    13    4   45 1
    14    5   14 1
    15    5    6 am
    16    6    7 2
    17    6    8 1
    18    8   12 2
    19    8    9 1
    20    9   34 1
    21    9   10 2
    22   10   11 1
    23   10   31 1
    24   11   12 1
    25   12   13 1
    26   13   14 2
    27   14   15 1
    28   15   20 1
    29   15   16 1
    30   16   17 1
    31   16   46 1
    32   16   47 1
    33   17   18 1
    34   17   48 1
    35   17   49 1
    36   18   19 1
    37   18   21 1
    38   18   78 1
    39   19   20 1
    40   19   50 1
    41   19   51 1
    42   20   52 1
    43   20   53 1
    44   21   22 1
    45   21   54 1
    46   21   55 1
    47   22   23 2
    48   22   24 am
    49   24   25 1
    50   24   56 1
    51   25   30 1
    52   25   26 1
    53   25   57 1
    54   26   27 1
    55   26   58 1
    56   26   59 1
    57   27   28 1
    58   27   60 1
    59   27   61 1
    60   28   29 1
    61   28   62 1
    62   28   63 1
    63   29   30 1
    64   29   64 1
    65   29   65 1
    66   30   66 1
    67   30   67 1
    68   31   32 1
    69   31   68 1
    70   31   69 1
    71   32   33 1
    72   33   34 1
    73   33   35 1
    74   33   36 1
    75   34   70 1
    76   34   71 1
    77   35   72 1
    78   35   73 1
    79   35   74 1
    80   36   75 1
    81   36   76 1
    82   36   77 1
@<TRIPOS>MOLECULE
ZINC39609343
   77    81     0     0     0
SMALL
USER_CHARGES

@<TRIPOS>ATOM
      1 C1          2.7833    1.5246    2.6022 C.3       1 <0>        -0.1226
      2 C2          2.8027    0.0178    2.5929 C.ar      1 <0>        -0.0797
      3 C3          1.6174   -0.6893    2.6742 C.ar      1 <0>        -0.1126
      4 C4          1.6351   -2.0713    2.6657 C.ar      1 <0>        -0.1138
      5 C5          2.8382   -2.7466    2.5754 C.ar      1 <0>        -0.0956
      6 C6          4.0230   -2.0397    2.4932 C.ar      1 <0>        -0.1113
      7 C7          4.0049   -0.6573    2.4974 C.ar      1 <0>        -0.0832
      8 C8          5.2964    0.1135    2.4024 C.3       1 <0>        -0.1197
      9 C9          2.8576   -4.2535    2.5671 C.3       1 <0>        -0.0853
     10 C10         2.7599   -4.7568    1.1256 C.3       1 <0>         0.1217
     11 N1          2.7788   -6.2217    1.1175 N.am      1 <0>        -0.7292
     12 C11         2.7031   -6.8902   -0.0503 C.2       1 <0>         0.5148
     13 O1          2.6193   -6.2791   -1.0946 O.2       1 <0>        -0.5181
     14 C12         2.7225   -8.3970   -0.0586 C.3       1 <0>        -0.1153
     15 H1          2.2893   -8.7865    0.8627 H         1 <0>         0.1201
     16 C13         1.9543   -8.9382   -1.2852 C.3       1 <0>         0.1119
     17 N2          2.9995   -9.1675   -2.3103 N.am      1 <0>        -0.6191
     18 C14         4.1477   -9.7164   -1.5498 C.3       1 <0>         0.1104
     19 C15         4.1606   -8.9130   -0.2341 C.3       1 <0>        -0.0734
     20 C16         4.5437   -9.8175    0.9334 C.3       1 <0>        -0.1333
     21 C17         5.9968  -10.2708    0.7666 C.3       1 <0>        -0.0107
     22 N3          6.8759   -9.0962    0.7225 N.4       1 <0>        -0.5044
     23 C18         6.5618   -8.2798   -0.4563 C.3       1 <0>        -0.0096
     24 C19         5.1327   -7.7421   -0.3412 C.3       1 <0>        -0.1469
     25 C20         2.9234   -8.9308   -3.6349 C.2       1 <0>         0.5495
     26 O2          3.8727   -9.1734   -4.3498 O.2       1 <0>        -0.5002
     27 C21         1.6589   -8.3647   -4.2278 C.3       1 <0>         0.0427
     28 O3          1.8241   -8.2047   -5.6382 O.3       1 <0>        -0.2769
     29 C22         0.7677   -7.7009   -6.3302 C.ar      1 <0>         0.1173
     30 C23        -0.3980   -7.3630   -5.6665 C.ar      1 <0>        -0.1630
     31 C24        -1.4825   -6.8481   -6.3613 C.ar      1 <0>        -0.0972
     32 C25        -1.4141   -6.6656   -7.7240 C.ar      1 <0>        -0.0903
     33 C26        -0.2426   -7.0017   -8.4106 C.ar      1 <0>        -0.1113
     34 C27         0.8590   -7.5184   -7.7086 C.ar      1 <0>         0.1220
     35 O4          1.9907   -7.8376   -8.3734 O.3       1 <0>        -0.2595
     36 C28         2.0954   -7.6683   -9.7002 C.2       1 <0>         0.5066
     37 O5          3.1353   -7.9707  -10.2569 O.2       1 <0>        -0.4585
     38 C29         1.0300   -7.1487  -10.4674 C.2       1 <0>        -0.2429
     39 C30        -0.1388   -6.8190   -9.8618 C.2       1 <0>         0.0236
     40 C31        -1.2924   -6.2632  -10.6564 C.3       1 <0>        -0.1285
     41 H2          2.7002    1.8933    1.5797 H         1 <0>         0.0737
     42 H3          1.9305    1.8735    3.1846 H         1 <0>         0.0693
     43 H4          3.7051    1.8971    3.0489 H         1 <0>         0.0709
     44 H5          0.6776   -0.1617    2.7447 H         1 <0>         0.1252
     45 H6          0.7093   -2.6236    2.7299 H         1 <0>         0.1217
     46 H7          4.9628   -2.5673    2.4229 H         1 <0>         0.1179
     47 H8          5.6862    0.2941    3.4042 H         1 <0>         0.0727
     48 H9          6.0221   -0.4628    1.8285 H         1 <0>         0.0650
     49 H10         5.1150    1.0667    1.9058 H         1 <0>         0.0718
     50 H11         3.7870   -4.6073    3.0133 H         1 <0>         0.0753
     51 H12         2.0119   -4.6309    3.1419 H         1 <0>         0.0805
     52 H13         1.8305   -4.4030    0.6794 H         1 <0>         0.0751
     53 H14         3.6056   -4.3794    0.5508 H         1 <0>         0.0718
     54 H15         2.8458   -6.7105    1.9527 H         1 <0>         0.4001
     55 H16         1.4534   -9.8741   -1.0373 H         1 <0>         0.0950
     56 H17         1.2322   -8.2013   -1.6368 H         1 <0>         0.0968
     57 H18         3.9969  -10.7765   -1.3456 H         1 <0>         0.0881
     58 H19         5.0765   -9.5622   -2.0990 H         1 <0>         0.0901
     59 H20         4.4391   -9.2680    1.8689 H         1 <0>         0.0980
     60 H21         3.8898  -10.6894    0.9479 H         1 <0>         0.1228
     61 H22         6.2785  -10.9038    1.6081 H         1 <0>         0.1407
     62 H23         6.0971  -10.8345   -0.1610 H         1 <0>         0.1335
     63 H24         6.7412   -8.5454    1.5571 H         1 <0>         0.4272
     64 H25         7.2601   -7.4450   -0.5163 H         1 <0>         0.1389
     65 H26         6.6486   -8.8908   -1.3548 H         1 <0>         0.1351
     66 H27         4.8941   -7.1508   -1.2252 H         1 <0>         0.1231
     67 H28         5.0494   -7.1175    0.5483 H         1 <0>         0.0958
     68 H29         0.8302   -9.0456   -4.0339 H         1 <0>         0.0968
     69 H30         1.4470   -7.3962   -3.7747 H         1 <0>         0.1028
     70 H31        -0.4645   -7.5018   -4.5975 H         1 <0>         0.1421
     71 H32        -2.3863   -6.5891   -5.8298 H         1 <0>         0.1420
     72 H33        -2.2614   -6.2651   -8.2607 H         1 <0>         0.1458
     73 H34         1.1418   -7.0224  -11.5341 H         1 <0>         0.1673
     74 H35        -1.2121   -5.1772  -10.7025 H         1 <0>         0.0935
     75 H36        -1.2685   -6.6725  -11.6664 H         1 <0>         0.0871
     76 H37        -2.2310   -6.5381  -10.1751 H         1 <0>         0.0830
     77 H38         7.8372   -9.3988    0.6739 H         1 <0>         0.4348
@<TRIPOS>BOND
     1    1    2 1
     2    1   41 1
     3    1   42 1
     4    1   43 1
     5    2    7 ar
     6    2    3 ar
     7    3    4 ar
     8    3   44 1
     9    4    5 ar
    10    4   45 1
    11    5    6 ar
    12    5    9 1
    13    6    7 ar
    14    6   46 1
    15    7    8 1
    16    8   47 1
    17    8   48 1
    18    8   49 1
    19    9   10 1
    20    9   50 1
    21    9   51 1
    22   10   11 1
    23   10   52 1
    24   10   53 1
    25   11   12 am
    26   11   54 1
    27   12   13 2
    28   12   14 1
    29   14   15 1
    30   14   19 1
    31   14   16 1
    32   16   17 1
    33   16   55 1
    34   16   56 1
    35   17   18 1
    36   17   25 am
    37   18   19 1
    38   18   57 1
    39   18   58 1
    40   19   24 1
    41   19   20 1
    42   20   21 1
    43   20   59 1
    44   20   60 1
    45   21   22 1
    46   21   61 1
    47   21   62 1
    48   22   23 1
    49   22   63 1
    50   22   77 1
    51   23   24 1
    52   23   64 1
    53   23   65 1
    54   24   66 1
    55   24   67 1
    56   25   26 2
    57   25   27 1
    58   27   28 1
    59   27   68 1
    60   27   69 1
    61   28   29 1
    62   29   34 ar
    63   29   30 ar
    64   30   31 ar
    65   30   70 1
    66   31   32 ar
    67   31   71 1
    68   32   33 ar
    69   32   72 1
    70   33   39 1
    71   33   34 ar
    72   34   35 1
    73   35   36 1
    74   36   37 2
    75   36   38 1
    76   38   39 2
    77   38   73 1
    78   39   40 1
    79   40   74 1
    80   40   75 1
    81   40   76 1
@<TRIPOS>MOLECULE
ZINC40986370
   66    68     0     0     0
SMALL
USER_CHARGES

@<TRIPOS>ATOM
      1 C1         -0.1668    1.6596    0.6666 C.3       1 <0>        -0.1228
      2 C2         -0.1267    0.1550    0.5913 C.ar      1 <0>        -0.0632
      3 C3         -0.0772   -0.4744   -0.6385 C.ar      1 <0>        -0.1190
      4 C4         -0.0403   -1.8545   -0.7076 C.ar      1 <0>        -0.0918
      5 C5         -0.0525   -2.6053    0.4531 C.ar      1 <0>        -0.1156
      6 C6         -0.1010   -1.9758    1.6829 C.ar      1 <0>        -0.0925
      7 C7         -0.1336   -0.5956    1.7521 C.ar      1 <0>        -0.1199
      8 C8         -0.0133   -4.1099    0.3778 C.3       1 <0>        -0.5371
      9 S1          1.7116   -4.6713    0.3927 S.o2      1 <0>         2.4901
     10 O1          2.3639   -4.2804   -0.8076 O.2       1 <0>        -0.8838
     11 O2          2.3018   -4.4055    1.6577 O.2       1 <0>        -0.8865
     12 C9          1.6166   -6.4284    0.3012 C.ar      1 <0>        -0.1649
     13 N1          1.5478   -7.1230    1.4203 N.ar      1 <0>        -0.4356
     14 C10         1.4747   -8.4423    1.3994 C.ar      1 <0>         0.1840
     15 C11         1.4713   -9.1006    0.1647 C.ar      1 <0>        -0.1951
     16 C12         1.5460   -8.3226   -0.9985 C.ar      1 <0>         0.2537
     17 N2          1.6113   -7.0060   -0.8837 N.ar      1 <0>        -0.4301
     18 Cl1         1.5462   -9.0731   -2.5639 Cl        1 <0>         0.0573
     19 C13         1.3916  -10.5741    0.0894 C.2       1 <0>         0.5736
     20 O3          1.3898  -11.1283   -0.9926 O.2       1 <0>        -0.4844
     21 N3          1.3209  -11.3038    1.2204 N.am      1 <0>        -0.7172
     22 C14         1.2419  -12.7648    1.1457 C.3       1 <0>         0.1053
     23 C15         1.3018  -13.3515    2.5575 C.3       1 <0>         0.0764
     24 H1          0.5057  -12.9201    3.1643 H         1 <0>         0.1461
     25 C16         2.6369  -13.0307    3.1786 C.ar      1 <0>        -0.2205
     26 C17         3.7495  -13.7831    2.8494 C.ar      1 <0>        -0.0620
     27 C18         4.9745  -13.4919    3.4167 C.ar      1 <0>        -0.1886
     28 C19         5.0882  -12.4417    4.3189 C.ar      1 <0>         0.2485
     29 C20         3.9686  -11.6879    4.6473 C.ar      1 <0>        -0.1891
     30 C21         2.7477  -11.9811    4.0720 C.ar      1 <0>        -0.0399
     31 N4          6.3255  -12.1447    4.8949 N.pl3     1 <0>        -0.6217
     32 C22         7.4786  -13.0121    4.6415 C.3       1 <0>         0.0778
     33 C23         6.4702  -10.9657    5.7523 C.3       1 <0>         0.0816
     34 N5          1.1308  -14.8090    2.4897 N.4       1 <0>        -0.3810
     35 C24         1.0992  -15.3621    3.8502 C.3       1 <0>        -0.0459
     36 C25        -0.1299  -15.1227    1.8041 C.3       1 <0>        -0.0572
     37 H2          0.8505    2.0486    0.7079 H         1 <0>         0.0778
     38 H3         -0.6712    2.0542   -0.2154 H         1 <0>         0.0716
     39 H4         -0.7089    1.9642    1.5619 H         1 <0>         0.0713
     40 H5         -0.0677    0.1121   -1.5453 H         1 <0>         0.1331
     41 H6         -0.0024   -2.3463   -1.6684 H         1 <0>         0.1346
     42 H7         -0.1109   -2.5624    2.5897 H         1 <0>         0.1336
     43 H8         -0.1677   -0.1038    2.7130 H         1 <0>         0.1326
     44 H9         -0.5397   -4.5304    1.2346 H         1 <0>         0.1500
     45 H10        -0.4950   -4.4402   -0.5425 H         1 <0>         0.1507
     46 H11         1.4190   -9.0034    2.3205 H         1 <0>         0.1894
     47 H12         1.3223  -10.8616    2.0837 H         1 <0>         0.4046
     48 H13         0.3041  -13.0542    0.6715 H         1 <0>         0.0957
     49 H14         2.0782  -13.1444    0.5587 H         1 <0>         0.0974
     50 H15         3.6603  -14.5997    2.1482 H         1 <0>         0.1170
     51 H16         5.8429  -14.0801    3.1595 H         1 <0>         0.1364
     52 H17         4.0535  -10.8710    5.3486 H         1 <0>         0.1367
     53 H18         1.8777  -11.3926    4.3235 H         1 <0>         0.1296
     54 H19         7.2044  -13.7784    3.9165 H         1 <0>         0.0797
     55 H20         8.3017  -12.4164    4.2469 H         1 <0>         0.0682
     56 H21         7.7876  -13.4870    5.5727 H         1 <0>         0.0650
     57 H22         6.2600  -11.2402    6.7860 H         1 <0>         0.0601
     58 H23         7.4888  -10.5848    5.6775 H         1 <0>         0.0782
     59 H24         5.7696  -10.1948    5.4314 H         1 <0>         0.0738
     60 H25         0.2671  -14.9239    4.4013 H         1 <0>         0.1234
     61 H26         0.9723  -16.4435    3.7999 H         1 <0>         0.1266
     62 H27         2.0347  -15.1293    4.3589 H         1 <0>         0.1265
     63 H28        -0.0650  -14.8084    0.7624 H         1 <0>         0.1270
     64 H29        -0.3104  -16.1967    1.8490 H         1 <0>         0.1302
     65 H30        -0.9498  -14.5958    2.2922 H         1 <0>         0.1258
     66 H31         1.9011  -15.2146    1.9795 H         1 <0>         0.4244
@<TRIPOS>BOND
     1    1    2 1
     2    1   37 1
     3    1   38 1
     4    1   39 1
     5    2    7 ar
     6    2    3 ar
     7    3    4 ar
     8    3   40 1
     9    4    5 ar
    10    4   41 1
    11    5    6 ar
    12    5    8 1
    13    6    7 ar
    14    6   42 1
    15    7   43 1
    16    8    9 1
    17    8   44 1
    18    8   45 1
    19    9   10 2
    20    9   11 2
    21    9   12 1
    22   12   17 ar
    23   12   13 ar
    24   13   14 ar
    25   14   15 ar
    26   14   46 1
    27   15   16 ar
    28   15   19 1
    29   16   17 ar
    30   16   18 1
    31   19   20 2
    32   19   21 am
    33   21   22 1
    34   21   47 1
    35   22   23 1
    36   22   48 1
    37   22   49 1
    38   23   24 1
    39   23   25 1
    40   23   34 1
    41   25   30 ar
    42   25   26 ar
    43   26   27 ar
    44   26   50 1
    45   27   28 ar
    46   27   51 1
    47   28   29 ar
    48   28   31 1
    49   29   30 ar
    50   29   52 1
    51   30   53 1
    52   31   32 1
    53   31   33 1
    54   32   54 1
    55   32   55 1
    56   32   56 1
    57   33   57 1
    58   33   58 1
    59   33   59 1
    60   34   35 1
    61   34   36 1
    62   34   66 1
    63   35   60 1
    64   35   61 1
    65   35   62 1
    66   36   63 1
    67   36   64 1
    68   36   65 1
@<TRIPOS>MOLECULE
ZINC64502389
   71    76     0     0     0
SMALL
USER_CHARGES

@<TRIPOS>ATOM
      1 C1         -0.0184    1.5028    0.0103 C.3       1 <0>        -0.0865
      2 C2          0.0021   -0.0041    0.0020 C.2       1 <0>         0.1975
      3 N1          0.0068   -0.7129   -1.1069 N.2       1 <0>        -0.2211
      4 N2          0.0593   -2.1076   -1.0766 N.am      1 <0>        -0.4547
      5 C3         -0.2843   -2.8551   -0.0059 C.2       1 <0>         0.5178
      6 O1         -0.2472   -4.0666   -0.0570 O.2       1 <0>        -0.4705
      7 C4         -0.7147   -2.1487    1.2554 C.3       1 <0>        -0.1420
      8 H1         -1.7960   -2.0148    1.2873 H         1 <0>         0.1537
      9 C5          0.0247   -0.8086    1.2309 C.2       1 <0>         0.0369
     10 N3          0.5991   -0.6184    2.3566 N.2       1 <0>        -0.1503
     11 N4          0.5734   -1.7348    3.1969 N.pl3     1 <0>        -0.4672
     12 C6         -0.1976   -2.8344    2.5230 C.3       1 <0>         0.3582
     13 H2         -1.0280   -3.1817    3.1378 H         1 <0>         0.1367
     14 N5          0.6940   -3.9456    2.1817 N.pl3     1 <0>        -0.4511
     15 C7          2.0075   -3.8323    1.8343 C.2       1 <0>        -0.0090
     16 C8          2.4882   -5.0691    1.5937 C.2       1 <0>        -0.1852
     17 C9          1.4327   -5.9793    1.8001 C.2       1 <0>        -0.1915
     18 C10         0.3488   -5.2646    2.1646 C.2       1 <0>         0.0253
     19 C11         1.1512   -1.8107    4.4643 C.ar      1 <0>         0.2097
     20 C12         1.0612   -2.9855    5.2018 C.ar      1 <0>        -0.1589
     21 C13         1.6344   -3.0569    6.4560 C.ar      1 <0>        -0.0792
     22 C14         2.2969   -1.9611    6.9787 C.ar      1 <0>        -0.1472
     23 C15         2.3881   -0.7904    6.2481 C.ar      1 <0>        -0.0833
     24 C16         1.8232   -0.7136    4.9905 C.ar      1 <0>        -0.1494
     25 C17         0.5152   -2.8038   -2.2823 C.3       1 <0>         0.1327
     26 C18        -0.6855   -3.1077   -3.1806 C.3       1 <0>        -0.1174
     27 C19        -0.2094   -3.8348   -4.4397 C.3       1 <0>        -0.1371
     28 C20        -1.3920   -4.1341   -5.3245 C.2       1 <0>         0.5201
     29 O2         -2.5060   -3.7989   -4.9817 O.2       1 <0>        -0.5280
     30 N6         -1.2117   -4.7744   -6.4967 N.am      1 <0>        -0.7389
     31 C21        -2.3614   -5.0653   -7.3568 C.3       1 <0>         0.1255
     32 C22        -1.8853   -5.7925   -8.6159 C.3       1 <0>        -0.1051
     33 C23        -3.0679   -6.0918   -9.5007 C.2       1 <0>         0.0712
     34 C24        -3.5136   -5.3507  -10.5407 C.ar      1 <0>        -0.1677
     35 C25        -3.0493   -4.0919  -11.1359 C.ar      1 <0>        -0.0122
     36 C26        -3.7167   -3.5821  -12.1960 C.ar      1 <0>        -0.1505
     37 C27        -4.8383   -4.2240  -12.7389 C.ar      1 <0>         0.0549
     38 C28        -5.3244   -5.3831  -12.2468 C.ar      1 <0>        -0.2099
     39 C29        -4.7000   -6.0090  -11.1328 C.ar      1 <0>         0.3278
     40 N7         -4.9770   -7.1141  -10.4841 N.pl3     1 <0>        -0.5850
     41 C30        -3.9927   -7.2850   -9.4096 C.3       1 <0>         0.0602
     42 H3          1.0042    1.8801    0.0026 H         1 <0>         0.0982
     43 H4         -0.5455    1.8639   -0.8728 H         1 <0>         0.0937
     44 H5         -0.5286    1.8543    0.9071 H         1 <0>         0.0907
     45 H6          2.5665   -2.9109    1.7635 H         1 <0>         0.1424
     46 H7          3.4968   -5.3164    1.2973 H         1 <0>         0.1312
     47 H8          1.4836   -7.0525    1.6909 H         1 <0>         0.1335
     48 H9         -0.6252   -5.6672    2.4002 H         1 <0>         0.1567
     49 H10         0.5434   -3.8413    4.7945 H         1 <0>         0.1201
     50 H11         1.5649   -3.9693    7.0296 H         1 <0>         0.1290
     51 H12         2.7439   -2.0198    7.9601 H         1 <0>         0.1265
     52 H13         2.9056    0.0634    6.6598 H         1 <0>         0.1297
     53 H14         1.8993    0.1992    4.4183 H         1 <0>         0.1318
     54 H15         1.2216   -2.1724   -2.8213 H         1 <0>         0.0905
     55 H16         1.0034   -3.7367   -2.0004 H         1 <0>         0.0958
     56 H17        -1.3919   -3.7390   -2.6416 H         1 <0>         0.0741
     57 H18        -1.1737   -2.1748   -3.4624 H         1 <0>         0.0793
     58 H19         0.4970   -3.2034   -4.9787 H         1 <0>         0.1017
     59 H20         0.2789   -4.7677   -4.1579 H         1 <0>         0.1015
     60 H21        -0.3208   -5.0425   -6.7708 H         1 <0>         0.4070
     61 H22        -3.0678   -5.6967   -6.8178 H         1 <0>         0.0768
     62 H23        -2.8496   -4.1324   -7.6386 H         1 <0>         0.0781
     63 H24        -1.1789   -5.1611   -9.1549 H         1 <0>         0.1164
     64 H25        -1.3971   -6.7254   -8.3341 H         1 <0>         0.1193
     65 H26        -2.1877   -3.5803  -10.7331 H         1 <0>         0.1607
     66 H27        -3.3767   -2.6560  -12.6355 H         1 <0>         0.1583
     67 H28        -5.3341   -3.7724  -13.5854 H         1 <0>         0.1613
     68 H29        -6.1924   -5.8375  -12.7013 H         1 <0>         0.1608
     69 H30        -3.4310   -8.2077   -9.5550 H         1 <0>         0.1755
     70 H31        -4.4945   -7.2984   -8.4420 H         1 <0>         0.1744
     71 H32        -5.7081   -7.7195  -10.6837 H         1 <0>         0.4562
@<TRIPOS>BOND
     1    1    2 1
     2    1   42 1
     3    1   43 1
     4    1   44 1
     5    2    9 1
     6    2    3 2
     7    3    4 1
     8    4    5 am
     9    4   25 1
    10    5    6 2
    11    5    7 1
    12    7    8 1
    13    7   12 1
    14    7    9 1
    15    9   10 2
    16   10   11 1
    17   11   12 1
    18   11   19 1
    19   12   13 1
    20   12   14 1
    21   14   18 1
    22   14   15 1
    23   15   16 2
    24   15   45 1
    25   16   17 1
    26   16   46 1
    27   17   18 2
    28   17   47 1
    29   18   48 1
    30   19   24 ar
    31   19   20 ar
    32   20   21 ar
    33   20   49 1
    34   21   22 ar
    35   21   50 1
    36   22   23 ar
    37   22   51 1
    38   23   24 ar
    39   23   52 1
    40   24   53 1
    41   25   26 1
    42   25   54 1
    43   25   55 1
    44   26   27 1
    45   26   56 1
    46   26   57 1
    47   27   28 1
    48   27   58 1
    49   27   59 1
    50   28   29 2
    51   28   30 am
    52   30   31 1
    53   30   60 1
    54   31   32 1
    55   31   61 1
    56   31   62 1
    57   32   33 1
    58   32   63 1
    59   32   64 1
    60   33   41 1
    61   33   34 2
    62   34   39 ar
    63   34   35 ar
    64   35   36 ar
    65   35   65 1
    66   36   37 ar
    67   36   66 1
    68   37   38 ar
    69   37   67 1
    70   38   39 ar
    71   38   68 1
    72   39   40 2
    73   40   41 1
    74   40   71 1
    75   41   69 1
    76   41   70 1
@<TRIPOS>MOLECULE
ZINC12158955
   63    69     0     0     0
SMALL
USER_CHARGES
(7R)-7-(9H-fluoren-9-ylamino)-3-[2-(2-pyridyl)ethyl]-5,6,7,8-tetrahydrobenzothiopheno[3,2-e]pyrimidin-4-one
@<TRIPOS>ATOM
      1 C1         -7.7953   17.3896    3.1905 C.ar      1 <0>        -0.0830
      2 C2         -6.4367   17.1706    3.0491 C.ar      1 <0>        -0.1034
      3 C3         -5.9806   16.0383    2.3981 C.ar      1 <0>        -0.0810
      4 C4         -6.8800   15.1254    1.8888 C.ar      1 <0>        -0.1609
      5 C5         -8.2490   15.3367    2.0265 C.ar      1 <0>        -0.0314
      6 C6         -8.7020   16.4812    2.6854 C.ar      1 <0>        -0.0875
      7 C7         -8.9880   14.2151    1.3956 C.ar      1 <0>        -0.0315
      8 C8        -10.3569   13.9695    1.2726 C.ar      1 <0>        -0.0878
      9 C9        -10.7975   12.8320    0.6289 C.ar      1 <0>        -0.0823
     10 C10        -9.8880   11.9316    0.1036 C.ar      1 <0>        -0.1037
     11 C11        -8.5301   12.1686    0.2218 C.ar      1 <0>        -0.0787
     12 C12        -8.0806   13.3032    0.8638 C.ar      1 <0>        -0.1595
     13 C13        -6.6932   13.8259    1.1447 C.3       1 <0>         0.1437
     14 C14        -5.2606   11.8739    1.1452 C.3       1 <0>         0.0275
     15 H1         -5.8479   11.6716    0.2495 H         1 <0>         0.1459
     16 C15        -5.0757   10.5789    1.9416 C.3       1 <0>        -0.1403
     17 C16        -4.5870    9.4648    1.0151 C.3       1 <0>        -0.0573
     18 C17        -3.3536    9.9564    0.2625 C.2       1 <0>        -0.0280
     19 C18        -3.0819   11.2753    0.1711 C.2       1 <0>        -0.2139
     20 S1         -1.5845   11.3713   -0.7727 S.3       1 <0>         0.1839
     21 C19        -1.3279    9.6358   -1.0415 C.2       1 <0>         0.1252
     22 C20        -2.4177    9.0399   -0.3874 C.2       1 <0>        -0.2605
     23 C21        -2.4707    7.6086   -0.4480 C.2       1 <0>         0.5518
     24 O1         -3.3815    6.9991    0.0856 O.2       1 <0>        -0.5103
     25 N1         -1.4952    6.9489   -1.0998 N.am      1 <0>        -0.5278
     26 C22        -0.4763    7.6120   -1.7048 C.2       1 <0>         0.4067
     27 N2         -0.4036    8.9158   -1.6712 N.2       1 <0>        -0.4975
     28 C23        -1.5367    5.4858   -1.1629 C.3       1 <0>         0.0957
     29 C24        -0.7801    4.9022    0.0321 C.3       1 <0>        -0.0797
     30 C25        -0.8228    3.3972   -0.0328 C.ar      1 <0>         0.1220
     31 C26         0.3577    2.6786   -0.0075 C.ar      1 <0>        -0.1650
     32 C27         0.3074    1.2945   -0.0681 C.ar      1 <0>        -0.0702
     33 C28        -0.9340    0.6822   -0.1522 C.ar      1 <0>        -0.1696
     34 C29        -2.0713    1.4666   -0.1785 C.ar      1 <0>         0.1053
     35 N3         -1.9858    2.7811   -0.1133 N.ar      1 <0>        -0.4803
     36 C30        -3.8778   12.4077    0.7446 C.3       1 <0>        -0.0418
     37 H2         -8.1474   18.2749    3.6991 H         1 <0>         0.1417
     38 H3         -5.7311   17.8848    3.4471 H         1 <0>         0.1425
     39 H4         -4.9196   15.8693    2.2884 H         1 <0>         0.1343
     40 H5         -9.7618   16.6559    2.7982 H         1 <0>         0.1368
     41 H6        -11.0703   14.6696    1.6815 H         1 <0>         0.1369
     42 H7        -11.8568   12.6434    0.5349 H         1 <0>         0.1418
     43 H8        -10.2385   11.0424   -0.3992 H         1 <0>         0.1420
     44 H9         -7.8216   11.4646   -0.1893 H         1 <0>         0.1312
     45 H10        -6.1615   14.0009    0.2094 H         1 <0>         0.1573
     46 H11        -6.0273   10.2884    2.3867 H         1 <0>         0.0968
     47 H12        -4.3415   10.7419    2.7306 H         1 <0>         0.0951
     48 H13        -5.3723    9.2109    0.3032 H         1 <0>         0.0931
     49 H14        -4.3289    8.5844    1.6037 H         1 <0>         0.1097
     50 H15         0.2874    7.0514   -2.2234 H         1 <0>         0.2221
     51 H16        -1.0698    5.1486   -2.0883 H         1 <0>         0.1022
     52 H17        -2.5734    5.1502   -1.1357 H         1 <0>         0.1194
     53 H18        -1.2470    5.2394    0.9575 H         1 <0>         0.0909
     54 H19         0.2566    5.2378    0.0049 H         1 <0>         0.0871
     55 H20         1.3072    3.1889    0.0582 H         1 <0>         0.1364
     56 H21         1.2135    0.7071   -0.0506 H         1 <0>         0.1387
     57 H22        -1.0107   -0.3939   -0.2011 H         1 <0>         0.1390
     58 H23        -3.0416    0.9977   -0.2488 H         1 <0>         0.1595
     59 H24        -3.9899   13.1931   -0.0028 H         1 <0>         0.1065
     60 H25        -3.3697   12.8064    1.6226 H         1 <0>         0.1056
     61 N4         -5.9507   12.8693    1.9871 N.4       1 <0>        -0.5089
     62 H26        -6.6076   12.3874    2.6119 H         1 <0>         0.4362
     63 H27        -5.2569   13.3787    2.5470 H         1 <0>         0.4311
@<TRIPOS>BOND
     1    1    6 ar
     2    1    2 ar
     3    1   37 1
     4    2    3 ar
     5    2   38 1
     6    3    4 ar
     7    3   39 1
     8    4   13 1
     9    4    5 ar
    10    5    6 ar
    11    5    7 1
    12    6   40 1
    13    7   12 ar
    14    7    8 ar
    15    8    9 ar
    16    8   41 1
    17    9   10 ar
    18    9   42 1
    19   10   11 ar
    20   10   43 1
    21   11   12 ar
    22   11   44 1
    23   12   13 1
    24   13   45 1
    25   13   61 1
    26   14   15 1
    27   14   36 1
    28   14   16 1
    29   14   61 1
    30   16   17 1
    31   16   46 1
    32   16   47 1
    33   17   18 1
    34   17   48 1
    35   17   49 1
    36   18   22 1
    37   18   19 2
    38   19   20 1
    39   19   36 1
    40   20   21 1
    41   21   27 1
    42   21   22 2
    43   22   23 1
    44   23   24 2
    45   23   25 am
    46   25   26 1
    47   25   28 1
    48   26   27 2
    49   26   50 1
    50   28   29 1
    51   28   51 1
    52   28   52 1
    53   29   30 1
    54   29   53 1
    55   29   54 1
    56   30   35 ar
    57   30   31 ar
    58   31   32 ar
    59   31   55 1
    60   32   33 ar
    61   32   56 1
    62   33   34 ar
    63   33   57 1
    64   34   35 ar
    65   34   58 1
    66   36   59 1
    67   36   60 1
    68   61   62 1
    69   61   63 1
@<TRIPOS>MOLECULE
ZINC28348158
   61    65     0     0     0
SMALL
USER_CHARGES
[1-[4-[4-(2,3-dihydro-1,4-benzodioxin-6-ylsulfanyl)-3-(trifluoromethyl)phenyl]-2-pyridyl]-4-piperidyl]methanol
@<TRIPOS>ATOM
      1 C1          1.7664   -4.2148    0.2009 C.ar      1 <0>        -0.0245
      2 C2          2.1295   -2.8898    0.0930 C.ar      1 <0>        -0.1303
      3 C3          3.4743   -2.5341    0.0933 C.ar      1 <0>        -0.0248
      4 C4          4.4549   -3.5140    0.2132 C.ar      1 <0>        -0.1760
      5 C5          4.0955   -4.8391    0.3266 C.ar      1 <0>        -0.0069
      6 C6          2.7477   -5.1982    0.3211 C.ar      1 <0>        -0.1197
      7 C7          2.3589   -6.6239    0.4426 C.ar      1 <0>         0.1203
      8 C8          3.3301   -7.6262    0.5579 C.ar      1 <0>        -0.1611
      9 C9          2.9298   -8.9392    0.6735 C.ar      1 <0>         0.1556
     10 N1          1.6497   -9.2628    0.6667 N.ar      1 <0>        -0.5194
     11 C10         0.6971   -8.3492    0.5547 C.ar      1 <0>         0.3687
     12 C11         1.0162   -7.0024    0.4391 C.ar      1 <0>        -0.1634
     13 N2         -0.6365   -8.7426    0.5534 N.pl3     1 <0>        -0.4693
     14 C12        -1.3902   -8.0512    1.6070 C.3       1 <0>         0.0507
     15 C13        -2.8760   -8.3963    1.4835 C.3       1 <0>        -0.1148
     16 C14        -3.0554   -9.9115    1.6122 C.3       1 <0>        -0.0947
     17 C15        -2.2221  -10.6096    0.5338 C.3       1 <0>        -0.1115
     18 C16        -0.7553  -10.2003    0.6849 C.3       1 <0>         0.0183
     19 C17        -4.5315  -10.2703    1.4297 C.3       1 <0>         0.0893
     20 O1         -5.2932   -9.7139    2.5032 O.3       1 <0>        -0.6051
     21 C18         5.9109   -3.1255    0.2185 C.3       1 <0>         0.5066
     22 F1          6.6995   -4.2737    0.3486 F         1 <0>        -0.1733
     23 F2          6.2251   -2.4776   -0.9810 F         1 <0>        -0.1632
     24 F3          6.1600   -2.2645    1.2927 F         1 <0>        -0.1619
     25 S1          3.9363   -0.8399   -0.0510 S.3       1 <0>         0.0816
     26 C19         2.4022    0.0256   -0.0059 C.ar      1 <0>        -0.1737
     27 C20         1.8273    0.3582    1.2143 C.ar      1 <0>        -0.0537
     28 C21         0.6243    1.0358    1.2497 C.ar      1 <0>        -0.1216
     29 C22        -0.0135    1.3863    0.0688 C.ar      1 <0>         0.0945
     30 C23         0.5604    1.0576   -1.1538 C.ar      1 <0>         0.0444
     31 C24         1.7672    0.3763   -1.1897 C.ar      1 <0>        -0.0529
     32 O2         -0.0466    1.4007   -2.3229 O.3       1 <0>        -0.3023
     33 C25        -1.4330    1.7502   -2.2503 C.3       1 <0>         0.0167
     34 C26        -1.6249    2.7136   -1.0713 C.3       1 <0>         0.0148
     35 O3         -1.2036    2.0468    0.1242 O.3       1 <0>        -0.2994
     36 H1          0.7223   -4.4910    0.1968 H         1 <0>         0.1426
     37 H2          1.3697   -2.1275    0.0040 H         1 <0>         0.1472
     38 H3          4.8569   -5.5994    0.4192 H         1 <0>         0.1527
     39 H4          4.3799   -7.3724    0.5602 H         1 <0>         0.1816
     40 H5          3.6743   -9.7160    0.7672 H         1 <0>         0.2084
     41 H6          0.2372   -6.2600    0.3476 H         1 <0>         0.1797
     42 H7         -1.0206   -8.3712    2.5924 H         1 <0>         0.0696
     43 H8         -1.2566   -6.9645    1.5005 H         1 <0>         0.1028
     44 H9         -3.4377   -7.8896    2.2821 H         1 <0>         0.0983
     45 H10        -3.2497   -8.0629    0.5041 H         1 <0>         0.0822
     46 H11        -2.7233  -10.2400    2.6081 H         1 <0>         0.0826
     47 H12        -2.3140  -11.6998    0.6479 H         1 <0>         0.0932
     48 H13        -2.5868  -10.3130   -0.4607 H         1 <0>         0.0884
     49 H14        -0.1563  -10.6891   -0.0976 H         1 <0>         0.0979
     50 H15        -0.3887  -10.5103    1.6746 H         1 <0>         0.0722
     51 H16        -4.8925   -9.8624    0.4740 H         1 <0>         0.0460
     52 H17        -4.6454  -11.3644    1.4278 H         1 <0>         0.0467
     53 H18        -6.3817   -9.8678    2.5428 H         1 <0>         0.4202
     54 H19         2.3214    0.0870    2.1355 H         1 <0>         0.1456
     55 H20         0.1789    1.2933    2.1993 H         1 <0>         0.1480
     56 H21         2.2134    0.1180   -2.1387 H         1 <0>         0.1481
     57 H22        -1.7382    2.2363   -3.1887 H         1 <0>         0.1316
     58 H23        -2.0328    0.8410   -2.0965 H         1 <0>         0.0818
     59 H24        -1.0191    3.6172   -1.2338 H         1 <0>         0.0870
     60 H25        -2.6862    2.9926   -0.9947 H         1 <0>         0.1328
     61 H26         1.3484  -10.3170    0.7557 H         1 <0>         0.4748
@<TRIPOS>BOND
     1    1    6 ar
     2    1    2 ar
     3    1   36 1
     4    2    3 ar
     5    2   37 1
     6    3    4 ar
     7    3   25 1
     8    4    5 ar
     9    4   21 1
    10    5    6 ar
    11    5   38 1
    12    6    7 1
    13    7   12 ar
    14    7    8 ar
    15    8    9 ar
    16    8   39 1
    17    9   10 ar
    18    9   40 1
    19   10   11 ar
    20   10   61 1
    21   11   12 ar
    22   11   13 1
    23   12   41 1
    24   13   18 1
    25   13   14 1
    26   14   15 1
    27   14   42 1
    28   14   43 1
    29   15   16 1
    30   15   44 1
    31   15   45 1
    32   16   17 1
    33   16   19 1
    34   16   46 1
    35   17   18 1
    36   17   47 1
    37   17   48 1
    38   18   49 1
    39   18   50 1
    40   19   20 1
    41   19   51 1
    42   19   52 1
    43   20   53 1
    44   21   22 1
    45   21   23 1
    46   21   24 1
    47   25   26 1
    48   26   31 ar
    49   26   27 ar
    50   27   28 ar
    51   27   54 1
    52   28   29 ar
    53   28   55 1
    54   29   35 1
    55   29   30 ar
    56   30   31 ar
    57   30   32 1
    58   31   56 1
    59   32   33 1
    60   33   34 1
    61   33   57 1
    62   33   58 1
    63   34   35 1
    64   34   59 1
    65   34   60 1
@<TRIPOS>MOLECULE
ZINC09346236
   63    68     0     0     0
SMALL
USER_CHARGES

@<TRIPOS>ATOM
      1 C1         -0.0187    1.5258    0.0104 C.3       1 <0>        -0.1550
      2 C2          0.0021   -0.0041    0.0020 C.3       1 <0>         0.0512
      3 O1          0.6709   -0.4649   -1.1737 O.3       1 <0>        -0.2950
      4 C3          0.7768   -1.8109   -1.3363 C.ar      1 <0>         0.1360
      5 C4          0.2435   -2.6690   -0.3879 C.ar      1 <0>        -0.1687
      6 C5          0.3516   -4.0370   -0.5549 C.ar      1 <0>        -0.0890
      7 C6          0.9916   -4.5523   -1.6668 C.ar      1 <0>        -0.1501
      8 C7          1.5263   -3.7019   -2.6164 C.ar      1 <0>        -0.1553
      9 C8          1.4160   -2.3297   -2.4582 C.ar      1 <0>         0.1153
     10 O2          1.9361   -1.4917   -3.3945 O.3       1 <0>        -0.2948
     11 C9          2.5780   -2.0947   -4.5199 C.3       1 <0>         0.0209
     12 C10         1.1070   -6.0444   -1.8436 C.3       1 <0>         0.2618
     13 H1          1.3023   -6.2456   -2.8969 H         1 <0>         0.1242
     14 C11         2.2977   -6.5237   -1.0430 C.2       1 <0>        -0.1943
     15 C12         2.0877   -7.4509   -0.0861 C.2       1 <0>         0.1911
     16 C13         3.2648   -7.9042    0.6979 C.ar      1 <0>        -0.1508
     17 C14         3.2223   -9.0588    1.4671 C.ar      1 <0>        -0.0672
     18 C15         4.3413   -9.4449    2.1803 C.ar      1 <0>        -0.1349
     19 C16         5.4971   -8.6854    2.1281 C.ar      1 <0>        -0.0535
     20 C17         5.5469   -7.5336    1.3646 C.ar      1 <0>        -0.1360
     21 C18         4.4337   -7.1344    0.6461 C.ar      1 <0>         0.1590
     22 O3          4.4523   -6.0043   -0.1054 O.3       1 <0>        -0.2819
     23 C19         3.6774   -5.9951   -1.3059 C.3       1 <0>         0.2186
     24 H2          3.6068   -4.9743   -1.6815 H         1 <0>         0.1411
     25 C20         4.3524   -6.8572   -2.3414 C.ar      1 <0>        -0.1322
     26 C21         4.9147   -8.0656   -1.9747 C.ar      1 <0>        -0.1081
     27 C22         5.5339   -8.8564   -2.9245 C.ar      1 <0>        -0.1110
     28 C23         5.5904   -8.4390   -4.2411 C.ar      1 <0>        -0.1029
     29 C24         5.0273   -7.2310   -4.6080 C.ar      1 <0>        -0.1133
     30 C25         4.4044   -6.4422   -3.6590 C.ar      1 <0>        -0.1044
     31 N1          0.8524   -7.9526    0.1565 N.pl3     1 <0>        -0.5483
     32 C26        -0.2351   -7.5925   -0.4918 C.cat     1 <0>         0.6224
     33 N2         -0.1849   -6.6484   -1.4939 N.pl3     1 <0>        -0.3780
     34 N3         -1.4901   -6.4920   -1.9663 N.pl3     1 <0>        -0.4144
     35 C27        -2.2705   -7.3460   -1.2321 C.2       1 <0>         0.3788
     36 N4         -1.5164   -7.9858   -0.3749 N.2       1 <0>        -0.5208
     37 S1         -4.0103   -7.5550   -1.4165 S.3       1 <0>         0.1228
     38 C28        -4.4363   -8.8052   -0.1731 C.3       1 <0>        -0.1584
     39 H3          1.0039    1.9031    0.0027 H         1 <0>         0.0707
     40 H4         -0.5459    1.8868   -0.8726 H         1 <0>         0.0699
     41 H5         -0.5289    1.8773    0.9072 H         1 <0>         0.0840
     42 H6          0.5293   -0.3651    0.8851 H         1 <0>         0.0660
     43 H7         -1.0205   -0.3814    0.0098 H         1 <0>         0.0644
     44 H8         -0.2563   -2.2690    0.4819 H         1 <0>         0.1445
     45 H9         -0.0645   -4.7047    0.1850 H         1 <0>         0.1135
     46 H10         2.0261   -4.1070   -3.4839 H         1 <0>         0.1437
     47 H11         3.4131   -2.7058   -4.1775 H         1 <0>         0.0584
     48 H12         1.8634   -2.7219   -5.0528 H         1 <0>         0.0572
     49 H13         2.9472   -1.3164   -5.1878 H         1 <0>         0.1108
     50 H14         2.3206   -9.6519    1.5078 H         1 <0>         0.1295
     51 H15         4.3137  -10.3422    2.7807 H         1 <0>         0.1418
     52 H16         6.3670   -8.9946    2.6885 H         1 <0>         0.1457
     53 H17         6.4527   -6.9466    1.3294 H         1 <0>         0.1492
     54 H18         4.8706   -8.3917   -0.9460 H         1 <0>         0.1261
     55 H19         5.9738   -9.8001   -2.6378 H         1 <0>         0.1288
     56 H20         6.0748   -9.0565   -4.9830 H         1 <0>         0.1301
     57 H21         5.0718   -6.9047   -5.6366 H         1 <0>         0.1307
     58 H22         3.9612   -5.5002   -3.9463 H         1 <0>         0.1219
     59 H23        -3.8882   -9.7245   -0.3795 H         1 <0>         0.1101
     60 H24        -4.1696   -8.4378    0.8178 H         1 <0>         0.1099
     61 H25        -5.5073   -9.0047   -0.2106 H         1 <0>         0.1405
     62 H26         0.7638   -8.6213    0.8535 H         1 <0>         0.4486
     63 H27        -1.7853   -5.8969   -2.6731 H         1 <0>         0.4790
@<TRIPOS>BOND
     1    1    2 1
     2    1   39 1
     3    1   40 1
     4    1   41 1
     5    2    3 1
     6    2   42 1
     7    2   43 1
     8    3    4 1
     9    4    9 ar
    10    4    5 ar
    11    5    6 ar
    12    5   44 1
    13    6    7 ar
    14    6   45 1
    15    7    8 ar
    16    7   12 1
    17    8    9 ar
    18    8   46 1
    19    9   10 1
    20   10   11 1
    21   11   47 1
    22   11   48 1
    23   11   49 1
    24   12   13 1
    25   12   33 1
    26   12   14 1
    27   14   23 1
    28   14   15 2
    29   15   16 1
    30   15   31 1
    31   16   21 ar
    32   16   17 ar
    33   17   18 ar
    34   17   50 1
    35   18   19 ar
    36   18   51 1
    37   19   20 ar
    38   19   52 1
    39   20   21 ar
    40   20   53 1
    41   21   22 1
    42   22   23 1
    43   23   24 1
    44   23   25 1
    45   25   30 ar
    46   25   26 ar
    47   26   27 ar
    48   26   54 1
    49   27   28 ar
    50   27   55 1
    51   28   29 ar
    52   28   56 1
    53   29   30 ar
    54   29   57 1
    55   30   58 1
    56   31   32 2
    57   31   62 1
    58   32   36 1
    59   32   33 1
    60   33   34 1
    61   34   35 1
    62   34   63 1
    63   35   36 2
    64   35   37 1
    65   37   38 1
    66   38   59 1
    67   38   60 1
    68   38   61 1
@<TRIPOS>MOLECULE
ZINC18180816
   62    66     0     0     0
SMALL
USER_CHARGES

@<TRIPOS>ATOM
      1 C1          0.3833    0.3741    1.7799 C.3       1 <0>        -0.1301
      2 C2          0.4198   -1.1037    1.4869 C.ar      1 <0>        -0.0362
      3 C3          0.3099   -1.5498    0.1817 C.ar      1 <0>        -0.1270
      4 C4          0.3425   -2.9010   -0.0939 C.ar      1 <0>        -0.0570
      5 C5          0.4872   -3.8196    0.9484 C.ar      1 <0>        -0.0834
      6 C6          0.5980   -3.3620    2.2636 C.ar      1 <0>        -0.0650
      7 C7          0.5687   -2.0078    2.5238 C.ar      1 <0>        -0.1247
      8 C8          0.5224   -5.2659    0.6617 C.2       1 <0>         0.2298
      9 N1          0.4342   -5.7937   -0.5099 N.2       1 <0>        -0.2682
     10 N2          0.4943   -7.1857   -0.5133 N.pl3     1 <0>        -0.4066
     11 C9          0.6463   -7.6588    0.8718 C.3       1 <0>         0.1324
     12 H1         -0.2007   -8.2816    1.1595 H         1 <0>         0.1302
     13 C10         0.6741   -6.3571    1.6973 C.3       1 <0>        -0.1343
     14 C11         1.9389   -8.4160    1.0349 C.ar      1 <0>        -0.1462
     15 C12         3.0810   -7.9806    0.3890 C.ar      1 <0>        -0.0908
     16 C13         4.2669   -8.6746    0.5381 C.ar      1 <0>        -0.1017
     17 C14         4.3108   -9.8054    1.3341 C.ar      1 <0>        -0.0148
     18 C15         3.1675  -10.2408    1.9802 C.ar      1 <0>        -0.1010
     19 C16         1.9836   -9.5426    1.8348 C.ar      1 <0>        -0.0841
     20 Cl1         5.7998  -10.6781    1.5214 Cl        1 <0>        -0.0401
     21 C17         0.4226   -7.9879   -1.6305 C.cat     1 <0>         0.4988
     22 N3          0.4901   -9.2849   -1.5076 N.pl3     1 <0>        -0.7280
     23 S1          0.2394   -7.2624   -3.2257 S.3       1 <0>         0.1792
     24 C18         0.1935   -8.6840   -4.3516 C.3       1 <0>        -0.1907
     25 H2          1.0682   -9.3173   -4.2039 H         1 <0>         0.1704
     26 C19         0.1059   -8.2127   -5.8175 C.3       1 <0>        -0.1219
     27 C20        -1.2087   -8.7885   -6.2972 C.2       1 <0>         0.5256
     28 O1         -1.6693   -8.6547   -7.4105 O.2       1 <0>        -0.4256
     29 N4         -1.7822   -9.4694   -5.2973 N.am      1 <0>        -0.5094
     30 C21        -1.0789   -9.4788   -4.1542 C.2       1 <0>         0.5349
     31 O2         -1.4083  -10.0332   -3.1277 O.2       1 <0>        -0.4614
     32 C22        -3.0159  -10.1214   -5.4332 C.ar      1 <0>         0.0919
     33 C23        -3.1304  -11.2272   -6.2651 C.ar      1 <0>        -0.1003
     34 C24        -4.3469  -11.8674   -6.3970 C.ar      1 <0>        -0.0991
     35 C25        -5.4505  -11.4081   -5.7014 C.ar      1 <0>        -0.0972
     36 C26        -5.3396  -10.3074   -4.8723 C.ar      1 <0>        -0.0704
     37 C27        -4.1240   -9.6663   -4.7319 C.ar      1 <0>        -0.0982
     38 C28        -6.5446   -9.8101   -4.1161 C.3       1 <0>        -0.1193
     39 H3          1.3956    0.7766    1.7443 H         1 <0>         0.0826
     40 H4         -0.2341    0.8769    1.0356 H         1 <0>         0.0755
     41 H5         -0.0380    0.5375    2.7718 H         1 <0>         0.0756
     42 H6          0.1980   -0.8384   -0.6231 H         1 <0>         0.1364
     43 H7          0.2559   -3.2478   -1.1130 H         1 <0>         0.1355
     44 H8          0.7098   -4.0668    3.0743 H         1 <0>         0.1335
     45 H9          0.6580   -1.6524    3.5398 H         1 <0>         0.1375
     46 H10         1.6234   -6.2558    2.2232 H         1 <0>         0.1332
     47 H11        -0.1582   -6.3350    2.4008 H         1 <0>         0.1353
     48 H12         3.0465   -7.0980   -0.2326 H         1 <0>         0.1299
     49 H13         5.1589   -8.3346    0.0332 H         1 <0>         0.1449
     50 H14         3.2012  -11.1236    2.6014 H         1 <0>         0.1484
     51 H15         1.0922   -9.8796    2.3430 H         1 <0>         0.1446
     52 H16         0.4396   -9.8499   -2.2944 H         1 <0>         0.4426
     53 H17         0.0899   -7.1241   -5.8702 H         1 <0>         0.1434
     54 H18         0.9355   -8.6138   -6.3997 H         1 <0>         0.1596
     55 H19        -2.2690  -11.5860   -6.8088 H         1 <0>         0.1289
     56 H20        -4.4366  -12.7273   -7.0442 H         1 <0>         0.1389
     57 H21        -6.4009  -11.9102   -5.8064 H         1 <0>         0.1360
     58 H22        -4.0369   -8.8092   -4.0807 H         1 <0>         0.1252
     59 H23        -6.5959  -10.3068   -3.1472 H         1 <0>         0.0767
     60 H24        -6.4620   -8.7333   -3.9685 H         1 <0>         0.0694
     61 H25        -7.4474  -10.0306   -4.6856 H         1 <0>         0.0761
     62 H26         0.5910   -9.6842   -0.6294 H         1 <0>         0.4298
@<TRIPOS>BOND
     1    1    2 1
     2    1   39 1
     3    1   40 1
     4    1   41 1
     5    2    7 ar
     6    2    3 ar
     7    3    4 ar
     8    3   42 1
     9    4    5 ar
    10    4   43 1
    11    5    6 ar
    12    5    8 1
    13    6    7 ar
    14    6   44 1
    15    7   45 1
    16    8   13 1
    17    8    9 2
    18    9   10 1
    19   10   11 1
    20   10   21 1
    21   11   12 1
    22   11   13 1
    23   11   14 1
    24   13   46 1
    25   13   47 1
    26   14   19 ar
    27   14   15 ar
    28   15   16 ar
    29   15   48 1
    30   16   17 ar
    31   16   49 1
    32   17   18 ar
    33   17   20 1
    34   18   19 ar
    35   18   50 1
    36   19   51 1
    37   21   22 2
    38   21   23 1
    39   22   52 1
    40   22   62 1
    41   23   24 1
    42   24   25 1
    43   24   30 1
    44   24   26 1
    45   26   27 1
    46   26   53 1
    47   26   54 1
    48   27   28 2
    49   27   29 am
    50   29   30 am
    51   29   32 1
    52   30   31 2
    53   32   37 ar
    54   32   33 ar
    55   33   34 ar
    56   33   55 1
    57   34   35 ar
    58   34   56 1
    59   35   36 ar
    60   35   57 1
    61   36   37 ar
    62   36   38 1
    63   37   58 1
    64   38   59 1
    65   38   60 1
    66   38   61 1
@<TRIPOS>MOLECULE
ZINC35427081
   67    72     0     0     0
SMALL
USER_CHARGES

@<TRIPOS>ATOM
      1 C1          0.5154    1.8007    2.0906 C.3       1 <0>        -0.1543
      2 C2          0.6393    0.3157    2.4375 C.3       1 <0>         0.0540
      3 O1          0.6918   -0.4520    1.2333 O.3       1 <0>        -0.3147
      4 C3          0.8028   -1.8008    1.3654 C.ar      1 <0>         0.1252
      5 C4          0.8540   -2.3718    2.6285 C.ar      1 <0>        -0.1909
      6 C5          0.9668   -3.7415    2.7634 C.ar      1 <0>        -0.0743
      7 C6          1.0284   -4.5471    1.6344 C.ar      1 <0>         0.1107
      8 C7          0.9766   -3.9750    0.3704 C.ar      1 <0>        -0.1013
      9 C8          0.8590   -2.6056    0.2370 C.ar      1 <0>        -0.1336
     10 N1          1.1433   -5.9373    1.7705 N.am      1 <0>        -0.6805
     11 C9          1.8643   -6.4579    2.7832 C.2       1 <0>         0.7144
     12 O2          2.3484   -5.7253    3.6243 O.2       1 <0>        -0.5539
     13 N2          2.0486   -7.7906    2.8637 N.am      1 <0>        -0.6161
     14 C10         1.4833   -8.7105    1.8605 C.3       1 <0>         0.1681
     15 C11         0.9433   -9.9839    2.4728 C.2       1 <0>        -0.1404
     16 C12        -0.4291  -10.2900    2.5274 C.2       1 <0>        -0.0619
     17 C13        -0.7941  -11.4748    3.0882 C.2       1 <0>        -0.2618
     18 S1          0.7481  -12.2115    3.5605 S.3       1 <0>         0.2151
     19 C14         1.7959  -10.9009    3.0066 C.2       1 <0>         0.0961
     20 N3          3.1736  -10.7363    3.0745 N.pl3     1 <0>        -0.3704
     21 C15         4.1924  -11.5770    2.7811 C.2       1 <0>         0.0112
     22 C16         5.3531  -10.9033    2.9508 C.2       1 <0>        -0.1727
     23 C17         5.0283   -9.6001    3.3860 C.2       1 <0>        -0.1329
     24 C18         3.6925   -9.5282    3.4782 C.2       1 <0>        -0.0015
     25 C19         2.8352   -8.4013    3.9622 C.3       1 <0>         0.2659
     26 H1          3.4717   -7.6381    4.4100 H         1 <0>         0.1315
     27 C20         1.8887   -8.9258    5.0110 C.ar      1 <0>        -0.0944
     28 C21         2.2487  -10.0128    5.7854 C.ar      1 <0>        -0.1064
     29 C22         1.3805  -10.4939    6.7475 C.ar      1 <0>        -0.1121
     30 C23         0.1525   -9.8877    6.9355 C.ar      1 <0>        -0.1166
     31 C24        -0.2072   -8.8002    6.1617 C.ar      1 <0>        -0.1263
     32 C25         0.6628   -8.3164    5.2025 C.ar      1 <0>        -0.0932
     33 C26        -2.1823  -11.9984    3.2534 C.3       1 <0>         0.1025
     34 N4         -3.1251  -10.8812    3.0542 N.4       1 <0>        -0.3850
     35 C27        -2.7932  -10.1776    1.8086 C.3       1 <0>        -0.0053
     36 C28        -1.5112   -9.3590    1.9849 C.3       1 <0>        -0.0910
     37 C29        -4.4949  -11.4052    2.9708 C.3       1 <0>        -0.0464
     38 H2         -0.3957    1.9646    1.5152 H         1 <0>         0.0672
     39 H3          0.4753    2.3862    3.0091 H         1 <0>         0.0807
     40 H4          1.3783    2.1092    1.5004 H         1 <0>         0.0681
     41 H5          1.5504    0.1517    3.0129 H         1 <0>         0.0637
     42 H6         -0.2236    0.0072    3.0277 H         1 <0>         0.0623
     43 H7          0.8061   -1.7449    3.5067 H         1 <0>         0.1322
     44 H8          1.0074   -4.1859    3.7469 H         1 <0>         0.1415
     45 H9          1.0245   -4.6012   -0.5082 H         1 <0>         0.1309
     46 H10         0.8146   -2.1607   -0.7462 H         1 <0>         0.1372
     47 H11         0.7039   -6.5247    1.1359 H         1 <0>         0.4003
     48 H12         0.6749   -8.2031    1.3340 H         1 <0>         0.0822
     49 H13         2.2611   -8.9682    1.1417 H         1 <0>         0.0837
     50 H14         4.0958  -12.6058    2.4668 H         1 <0>         0.1741
     51 H15         6.3470  -11.2915    2.7839 H         1 <0>         0.1561
     52 H16         5.7276   -8.8066    3.6047 H         1 <0>         0.1533
     53 H17         3.2082  -10.4864    5.6386 H         1 <0>         0.1224
     54 H18         1.6615  -11.3436    7.3520 H         1 <0>         0.1245
     55 H19        -0.5262  -10.2641    7.6866 H         1 <0>         0.1221
     56 H20        -1.1668   -8.3268    6.3083 H         1 <0>         0.1185
     57 H21         0.3834   -7.4644    4.6005 H         1 <0>         0.1154
     58 H22        -2.3723  -12.7759    2.5134 H         1 <0>         0.1456
     59 H23        -2.3039  -12.4075    4.2564 H         1 <0>         0.1444
     60 H24        -2.6492  -10.9058    1.0104 H         1 <0>         0.1344
     61 H25        -3.6131   -9.5109    1.5415 H         1 <0>         0.1401
     62 H26        -1.6866   -8.5471    2.6907 H         1 <0>         0.1067
     63 H27        -1.1987   -8.9515    1.0235 H         1 <0>         0.1241
     64 H28        -4.7410  -11.9278    3.8951 H         1 <0>         0.1277
     65 H29        -5.1913  -10.5797    2.8236 H         1 <0>         0.1288
     66 H30        -4.5688  -12.0969    2.1316 H         1 <0>         0.1257
     67 H31        -3.0566  -10.2407    3.8309 H         1 <0>         0.4291
@<TRIPOS>BOND
     1    1    2 1
     2    1   38 1
     3    1   39 1
     4    1   40 1
     5    2    3 1
     6    2   41 1
     7    2   42 1
     8    3    4 1
     9    4    9 ar
    10    4    5 ar
    11    5    6 ar
    12    5   43 1
    13    6    7 ar
    14    6   44 1
    15    7    8 ar
    16    7   10 1
    17    8    9 ar
    18    8   45 1
    19    9   46 1
    20   10   11 am
    21   10   47 1
    22   11   12 2
    23   11   13 am
    24   13   25 1
    25   13   14 1
    26   14   15 1
    27   14   48 1
    28   14   49 1
    29   15   19 2
    30   15   16 1
    31   16   36 1
    32   16   17 2
    33   17   18 1
    34   17   33 1
    35   18   19 1
    36   19   20 1
    37   20   24 1
    38   20   21 1
    39   21   22 2
    40   21   50 1
    41   22   23 1
    42   22   51 1
    43   23   24 2
    44   23   52 1
    45   24   25 1
    46   25   26 1
    47   25   27 1
    48   27   32 ar
    49   27   28 ar
    50   28   29 ar
    51   28   53 1
    52   29   30 ar
    53   29   54 1
    54   30   31 ar
    55   30   55 1
    56   31   32 ar
    57   31   56 1
    58   32   57 1
    59   33   34 1
    60   33   58 1
    61   33   59 1
    62   34   35 1
    63   34   37 1
    64   34   67 1
    65   35   36 1
    66   35   60 1
    67   35   61 1
    68   36   62 1
    69   36   63 1
    70   37   64 1
    71   37   65 1
    72   37   66 1
@<TRIPOS>MOLECULE
ZINC13097585
   55    58     0     0     0
SMALL
USER_CHARGES
N-(2-chlorophenyl)-2-[[4-(4-chlorophenyl)-3-phenyl-5-thioxo-1,2,4-triazol-1-yl]methyl-methyl-amino]acetamide
@<TRIPOS>ATOM
      1 C1          2.7705    2.6230    2.4648 C.3       1 <0>        -0.0554
      2 C2          1.9328    4.8154    1.8694 C.3       1 <0>        -0.0228
      3 C3          1.5007    5.1294    3.2786 C.2       1 <0>         0.5049
      4 O1          1.1334    4.2370    4.0134 O.2       1 <0>        -0.5051
      5 N1          1.5226    6.4018    3.7225 N.am      1 <0>        -0.6384
      6 C4          1.2238    6.6813    5.0611 C.ar      1 <0>         0.1342
      7 C5          1.3574    5.6911    6.0253 C.ar      1 <0>        -0.1172
      8 C6          1.0674    5.9715    7.3462 C.ar      1 <0>        -0.0918
      9 C7          0.6334    7.2338    7.7080 C.ar      1 <0>        -0.1070
     10 C8          0.4936    8.2210    6.7502 C.ar      1 <0>        -0.0857
     11 C9          0.7875    7.9487    5.4272 C.ar      1 <0>        -0.0591
     12 Cl1         0.6114    9.1884    4.2248 Cl        1 <0>        -0.0553
     13 C10         2.0010    3.0536    0.2098 C.3       1 <0>         0.2770
     14 N2          1.6470    1.6521   -0.0281 N.pl3     1 <0>        -0.4262
     15 C11         2.4833    0.5960    0.0405 C.2       1 <0>         0.4550
     16 S1          4.1514    0.6511    0.4215 S.2       1 <0>        -0.4851
     17 N3          1.7686   -0.5105   -0.2452 N.pl3     1 <0>        -0.4369
     18 C12         0.4633   -0.1301   -0.4955 C.2       1 <0>         0.3768
     19 N4          0.3779    1.1645   -0.3684 N.2       1 <0>        -0.2800
     20 C13        -0.6495   -1.0393   -0.8483 C.ar      1 <0>        -0.0747
     21 C14        -0.3812   -2.3246   -1.3199 C.ar      1 <0>        -0.0795
     22 C15        -1.4234   -3.1692   -1.6427 C.ar      1 <0>        -0.1141
     23 C16        -2.7319   -2.7402   -1.5099 C.ar      1 <0>        -0.0714
     24 C17        -3.0044   -1.4651   -1.0473 C.ar      1 <0>        -0.1186
     25 C18        -1.9712   -0.6128   -0.7162 C.ar      1 <0>        -0.0577
     26 C19         2.2635   -1.8209   -0.2821 C.ar      1 <0>         0.0934
     27 C20         1.8518   -2.7467    0.6673 C.ar      1 <0>        -0.0765
     28 C21         2.3374   -4.0390    0.6259 C.ar      1 <0>        -0.0961
     29 C22         3.2416   -4.4086   -0.3544 C.ar      1 <0>        -0.0062
     30 C23         3.6574   -3.4863   -1.2986 C.ar      1 <0>        -0.0938
     31 C24         3.1708   -2.1942   -1.2647 C.ar      1 <0>        -0.0629
     32 Cl2         3.8547   -6.0320   -0.4001 Cl        1 <0>        -0.0359
     33 H1          3.7884    2.8853    2.1765 H         1 <0>         0.1406
     34 H2          2.6132    2.8760    3.5133 H         1 <0>         0.1371
     35 H3          2.6166    1.5534    2.3221 H         1 <0>         0.1166
     36 H4          2.9683    5.1254    1.7293 H         1 <0>         0.1755
     37 H5          1.2949    5.3506    1.1661 H         1 <0>         0.1682
     38 H6          1.7453    7.1238    3.1142 H         1 <0>         0.4224
     39 H7          1.6917    4.7036    5.7432 H         1 <0>         0.1560
     40 H8          1.1755    5.2027    8.0970 H         1 <0>         0.1394
     41 H9          0.4027    7.4487    8.7409 H         1 <0>         0.1417
     42 H10         0.1540    9.2056    7.0358 H         1 <0>         0.1455
     43 H11         3.0421    3.2176   -0.0679 H         1 <0>         0.1822
     44 H12         1.3588    3.6976   -0.3911 H         1 <0>         0.1730
     45 H13         0.6399   -2.6589   -1.4286 H         1 <0>         0.1331
     46 H14        -1.2171   -4.1660   -2.0037 H         1 <0>         0.1403
     47 H15        -3.5441   -3.4035   -1.7681 H         1 <0>         0.1394
     48 H16        -4.0281   -1.1362   -0.9454 H         1 <0>         0.1410
     49 H17        -2.1852    0.3824   -0.3552 H         1 <0>         0.1364
     50 H18         1.1493   -2.4577    1.4350 H         1 <0>         0.1404
     51 H19         2.0141   -4.7607    1.3614 H         1 <0>         0.1535
     52 H20         4.3634   -3.7770   -2.0624 H         1 <0>         0.1542
     53 H21         3.4959   -1.4747   -2.0015 H         1 <0>         0.1432
     54 N5          1.7915    3.3620    1.6401 N.4       1 <0>        -0.4044
     55 H22         0.8436    3.0727    1.9083 H         1 <0>         0.4373
@<TRIPOS>BOND
     1    1   33 1
     2    1   34 1
     3    1   35 1
     4    1   54 1
     5    2    3 1
     6    2   36 1
     7    2   37 1
     8    2   54 1
     9    3    4 2
    10    3    5 am
    11    5    6 1
    12    5   38 1
    13    6   11 ar
    14    6    7 ar
    15    7    8 ar
    16    7   39 1
    17    8    9 ar
    18    8   40 1
    19    9   10 ar
    20    9   41 1
    21   10   11 ar
    22   10   42 1
    23   11   12 1
    24   13   14 1
    25   13   43 1
    26   13   44 1
    27   13   54 1
    28   14   19 1
    29   14   15 1
    30   15   16 2
    31   15   17 1
    32   17   18 1
    33   17   26 1
    34   18   19 2
    35   18   20 1
    36   20   25 ar
    37   20   21 ar
    38   21   22 ar
    39   21   45 1
    40   22   23 ar
    41   22   46 1
    42   23   24 ar
    43   23   47 1
    44   24   25 ar
    45   24   48 1
    46   25   49 1
    47   26   31 ar
    48   26   27 ar
    49   27   28 ar
    50   27   50 1
    51   28   29 ar
    52   28   51 1
    53   29   30 ar
    54   29   32 1
    55   30   31 ar
    56   30   52 1
    57   31   53 1
    58   54   55 1
@<TRIPOS>MOLECULE
ZINC30826585
   54    57     0     0     0
SMALL
USER_CHARGES
4-bromo-N-[3-chloro-2-(4-methylpiperazin-1-yl)phenyl]-3-methoxy-naphthalene-2-carboxamide
@<TRIPOS>ATOM
      1 C1          6.4196    5.2536   -0.0019 C.3       1 <0>        -0.0454
      2 N1          5.1617    4.4948    0.0025 N.4       1 <0>        -0.4040
      3 C2          5.0191    3.7047   -1.2284 C.3       1 <0>         0.0028
      4 C3          3.6639    2.9935   -1.2206 C.3       1 <0>         0.0005
      5 N2          3.5716    2.1335   -0.0325 N.pl3     1 <0>        -0.4892
      6 C4          3.7143    2.9237    1.1983 C.3       1 <0>         0.0124
      7 C5          5.0695    3.6349    1.1906 C.3       1 <0>         0.0028
      8 C6          2.3730    1.4105   -0.0284 C.ar      1 <0>         0.0430
      9 C7          2.3973    0.0161   -0.0291 C.ar      1 <0>         0.2065
     10 C8          1.2062   -0.6943   -0.0245 C.ar      1 <0>        -0.1105
     11 C9         -0.0010   -0.0205   -0.0188 C.ar      1 <0>        -0.0710
     12 C10        -0.0261    1.3618   -0.0176 C.ar      1 <0>        -0.1135
     13 C11         1.1570    2.0790   -0.0226 C.ar      1 <0>        -0.0442
     14 Cl1         1.1203    3.8146   -0.0216 Cl        1 <0>        -0.0608
     15 N3          3.6213   -0.6651   -0.0348 N.am      1 <0>        -0.6737
     16 C12         3.7460   -1.8324    0.6272 C.2       1 <0>         0.5635
     17 O1          2.7761   -2.3352    1.1612 O.2       1 <0>        -0.4868
     18 C13         5.0596   -2.5003    0.7042 C.ar      1 <0>        -0.1515
     19 C14         6.1621   -1.9233    0.0940 C.ar      1 <0>        -0.0317
     20 C15         7.4075   -2.5621    0.1703 C.ar      1 <0>        -0.0666
     21 C16         8.5477   -2.0043   -0.4370 C.ar      1 <0>        -0.0971
     22 C17         9.7428   -2.6479   -0.3452 C.ar      1 <0>        -0.1098
     23 C18         9.8568   -3.8549    0.3429 C.ar      1 <0>        -0.0860
     24 C19         8.7764   -4.4249    0.9430 C.ar      1 <0>        -0.1156
     25 C20         7.5238   -3.7908    0.8708 C.ar      1 <0>         0.0021
     26 C21         6.3909   -4.3552    1.4810 C.ar      1 <0>        -0.1140
     27 C22         5.1862   -3.7189    1.4032 C.ar      1 <0>         0.1828
     28 O2          4.0970   -4.2673    1.9998 O.3       1 <0>        -0.3112
     29 C23         3.3135   -5.1696    1.2163 C.3       1 <0>         0.0443
     30 Br1         6.5373   -5.9918    2.4170 Br        1 <0>        -0.0094
     31 H1          6.4623    5.8874   -0.9000 H         1 <0>         0.1253
     32 H2          7.2692    4.5549   -0.0054 H         1 <0>         0.1208
     33 H3          6.4691    5.8866    0.8963 H         1 <0>         0.1252
     34 H4          5.0794    4.3715   -2.1012 H         1 <0>         0.1386
     35 H5          5.8256    2.9585   -1.2807 H         1 <0>         0.1347
     36 H6          2.8575    3.7413   -1.1966 H         1 <0>         0.0841
     37 H7          3.5671    2.3789   -2.1277 H         1 <0>         0.1248
     38 H8          2.9078    3.6699    1.2505 H         1 <0>         0.0794
     39 H9          3.6540    2.2570    2.0712 H         1 <0>         0.1247
     40 H10         5.8766    2.8879    1.1661 H         1 <0>         0.1357
     41 H11         5.1669    4.2503    2.0971 H         1 <0>         0.1388
     42 H12         1.2217   -1.7742   -0.0250 H         1 <0>         0.1554
     43 H13        -0.9274   -0.5757   -0.0149 H         1 <0>         0.1459
     44 H14        -0.9719    1.8832   -0.0174 H         1 <0>         0.1420
     45 H15         4.4807   -0.2473   -0.5796 H         1 <0>         0.4345
     46 H16         6.0623   -0.9881   -0.4369 H         1 <0>         0.1376
     47 H17         8.4743   -1.0699   -0.9736 H         1 <0>         0.1326
     48 H18        10.6163   -2.2171   -0.8120 H         1 <0>         0.1326
     49 H19        10.8174   -4.3452    0.4010 H         1 <0>         0.1351
     50 H20         8.8808   -5.3606    1.4721 H         1 <0>         0.1413
     51 H21         2.4684   -5.5376    1.8166 H         1 <0>         0.1040
     52 H22         3.9375   -6.0192    0.9020 H         1 <0>         0.0487
     53 H23         2.9315   -4.6465    0.3272 H         1 <0>         0.0488
     54 H24         4.3328    5.2169    0.0407 H         1 <0>         0.4404
@<TRIPOS>BOND
     1    1    2 1
     2    1   31 1
     3    1   32 1
     4    1   33 1
     5    2    7 1
     6    2    3 1
     7    2   54 1
     8    3    4 1
     9    3   34 1
    10    3   35 1
    11    4    5 1
    12    4   36 1
    13    4   37 1
    14    5    6 1
    15    5    8 1
    16    6    7 1
    17    6   38 1
    18    6   39 1
    19    7   40 1
    20    7   41 1
    21    8   13 ar
    22    8    9 ar
    23    9   10 ar
    24    9   15 1
    25   10   11 ar
    26   10   42 1
    27   11   12 ar
    28   11   43 1
    29   12   13 ar
    30   12   44 1
    31   13   14 1
    32   15   16 am
    33   15   45 1
    34   16   17 2
    35   16   18 1
    36   18   27 ar
    37   18   19 ar
    38   19   20 ar
    39   19   46 1
    40   20   25 ar
    41   20   21 ar
    42   21   22 ar
    43   21   47 1
    44   22   23 ar
    45   22   48 1
    46   23   24 ar
    47   23   49 1
    48   24   25 ar
    49   24   50 1
    50   25   26 ar
    51   26   27 ar
    52   26   30 1
    53   27   28 1
    54   28   29 1
    55   29   51 1
    56   29   52 1
    57   29   53 1
@<TRIPOS>MOLECULE
ZINC09345711
   62    67     0     0     0
SMALL
USER_CHARGES

@<TRIPOS>ATOM
      1 C1         -0.0184    1.5028    0.0103 C.3       1 <0>        -0.1277
      2 C2          0.0021   -0.0041    0.0020 C.ar      1 <0>        -0.0515
      3 C3          0.0057   -0.6887   -1.1989 C.ar      1 <0>        -0.1094
      4 C4          0.0245   -2.0709   -1.2065 C.ar      1 <0>        -0.0910
      5 C5          0.0400   -2.7685   -0.0132 C.ar      1 <0>        -0.1560
      6 C6          0.0373   -2.0839    1.1877 C.ar      1 <0>        -0.0916
      7 C7          0.0229   -0.7016    1.1953 C.ar      1 <0>        -0.1111
      8 C8          0.0595   -4.2753   -0.0215 C.3       1 <0>         0.2578
      9 H1         -0.2960   -4.6123   -0.9952 H         1 <0>         0.1243
     10 C9          1.4932   -4.7296    0.1405 C.2       1 <0>        -0.1947
     11 C10         1.7937   -5.5212    1.1905 C.2       1 <0>         0.1911
     12 C11         3.2073   -5.9509    1.3415 C.ar      1 <0>        -0.1452
     13 C12         3.5603   -7.0013    2.1773 C.ar      1 <0>        -0.0701
     14 C13         4.8877   -7.3697    2.2865 C.ar      1 <0>        -0.0965
     15 C14         5.8592   -6.6963    1.5666 C.ar      1 <0>        -0.0561
     16 C15         5.5155   -5.6485    0.7324 C.ar      1 <0>        -0.1300
     17 C16         4.1903   -5.2675    0.6146 C.ar      1 <0>         0.1516
     18 O1          3.8256   -4.2383   -0.1916 O.3       1 <0>        -0.2817
     19 C17         2.5548   -4.3236   -0.8395 C.3       1 <0>         0.2212
     20 H2          2.3009   -3.3523   -1.2642 H         1 <0>         0.1419
     21 C18         2.6274   -5.3434   -1.9466 C.ar      1 <0>        -0.1408
     22 C19         3.3046   -6.5324   -1.7459 C.ar      1 <0>        -0.0861
     23 C20         3.3736   -7.4691   -2.7581 C.ar      1 <0>        -0.0941
     24 C21         2.7609   -7.2159   -3.9796 C.ar      1 <0>        -0.0678
     25 C22         2.0809   -6.0202   -4.1775 C.ar      1 <0>        -0.1319
     26 C23         2.0117   -5.0905   -3.1589 C.ar      1 <0>        -0.0801
     27 S1          2.8467   -8.4079   -5.2744 S.3       1 <0>        -0.1009
     28 C24         1.9218   -7.6446   -6.6355 C.3       1 <0>        -0.1481
     29 C25         5.2788   -8.5088    3.1923 C.3       1 <0>        -0.1200
     30 N1          0.8470   -5.9120    2.0779 N.pl3     1 <0>        -0.5484
     31 C26        -0.4208   -5.5641    2.0116 C.cat     1 <0>         0.6225
     32 N2         -0.8823   -4.7511    0.9996 N.pl3     1 <0>        -0.3786
     33 N3         -2.2499   -4.5706    1.2194 N.pl3     1 <0>        -0.4150
     34 C27        -2.5552   -5.2804    2.3509 C.2       1 <0>         0.3789
     35 N4         -1.4707   -5.8597    2.7992 N.2       1 <0>        -0.5210
     36 S2         -4.1538   -5.4004    3.0823 S.3       1 <0>         0.1225
     37 C28        -3.8960   -6.4645    4.5286 C.3       1 <0>        -0.1583
     38 H3          1.0042    1.8801    0.0026 H         1 <0>         0.0824
     39 H4         -0.5455    1.8639   -0.8728 H         1 <0>         0.0756
     40 H5         -0.5286    1.8543    0.9071 H         1 <0>         0.0735
     41 H6         -0.0064   -0.1436   -2.1312 H         1 <0>         0.1376
     42 H7          0.0266   -2.6057   -2.1448 H         1 <0>         0.1321
     43 H8          0.0491   -2.6289    2.1200 H         1 <0>         0.1084
     44 H9          0.0245   -0.1667    2.1335 H         1 <0>         0.1320
     45 H10         2.8024   -7.5271    2.7390 H         1 <0>         0.1290
     46 H11         6.8941   -6.9914    1.6573 H         1 <0>         0.1454
     47 H12         6.2797   -5.1283    0.1741 H         1 <0>         0.1499
     48 H13         3.7805   -6.7285   -0.7964 H         1 <0>         0.1311
     49 H14         3.9032   -8.3970   -2.6009 H         1 <0>         0.1339
     50 H15         1.6036   -5.8202   -5.1255 H         1 <0>         0.1309
     51 H16         1.4800   -4.1628   -3.3106 H         1 <0>         0.1281
     52 H17         0.8963   -7.4568   -6.3175 H         1 <0>         0.0851
     53 H18         2.3946   -6.7024   -6.9127 H         1 <0>         0.0876
     54 H19         1.9188   -8.3160   -7.4942 H         1 <0>         0.1154
     55 H20         5.2540   -9.4435    2.6321 H         1 <0>         0.0787
     56 H21         6.2859   -8.3405    3.5737 H         1 <0>         0.0765
     57 H22         4.5794   -8.5664    4.0263 H         1 <0>         0.0706
     58 H23        -3.5192   -7.4343    4.2036 H         1 <0>         0.1102
     59 H24        -3.1721   -5.9992    5.1976 H         1 <0>         0.1099
     60 H25        -4.8416   -6.5994    5.0536 H         1 <0>         0.1406
     61 H26         1.1216   -6.4861    2.8100 H         1 <0>         0.4485
     62 H27        -2.8616   -4.0465    0.6789 H         1 <0>         0.4788
@<TRIPOS>BOND
     1    1    2 1
     2    1   38 1
     3    1   39 1
     4    1   40 1
     5    2    7 ar
     6    2    3 ar
     7    3    4 ar
     8    3   41 1
     9    4    5 ar
    10    4   42 1
    11    5    6 ar
    12    5    8 1
    13    6    7 ar
    14    6   43 1
    15    7   44 1
    16    8    9 1
    17    8   32 1
    18    8   10 1
    19   10   19 1
    20   10   11 2
    21   11   12 1
    22   11   30 1
    23   12   17 ar
    24   12   13 ar
    25   13   14 ar
    26   13   45 1
    27   14   15 ar
    28   14   29 1
    29   15   16 ar
    30   15   46 1
    31   16   17 ar
    32   16   47 1
    33   17   18 1
    34   18   19 1
    35   19   20 1
    36   19   21 1
    37   21   26 ar
    38   21   22 ar
    39   22   23 ar
    40   22   48 1
    41   23   24 ar
    42   23   49 1
    43   24   25 ar
    44   24   27 1
    45   25   26 ar
    46   25   50 1
    47   26   51 1
    48   27   28 1
    49   28   52 1
    50   28   53 1
    51   28   54 1
    52   29   55 1
    53   29   56 1
    54   29   57 1
    55   30   31 2
    56   30   61 1
    57   31   35 1
    58   31   32 1
    59   32   33 1
    60   33   34 1
    61   33   62 1
    62   34   35 2
    63   34   36 1
    64   36   37 1
    65   37   58 1
    66   37   59 1
    67   37   60 1
@<TRIPOS>MOLECULE
ZINC41152317
   56    60     0     0     0
SMALL
USER_CHARGES

@<TRIPOS>ATOM
      1 C1         -0.0282    1.3428   -0.2144 C.ar      1 <0>        -0.1215
      2 C2          1.1444    2.0561   -0.4455 C.ar      1 <0>        -0.0203
      3 C3          2.3554    1.4302   -0.4631 C.ar      1 <0>        -0.1483
      4 C4          2.4230    0.0473   -0.2450 C.ar      1 <0>         0.2026
      5 C5          1.2288   -0.6764   -0.0096 C.ar      1 <0>        -0.1916
      6 C6          0.0022   -0.0039    0.0014 C.ar      1 <0>        -0.0376
      7 C7          1.3218   -2.0736    0.2088 C.ar      1 <0>         0.5506
      8 N1          2.5215   -2.6353    0.1823 N.ar      1 <0>        -0.5925
      9 C8          3.6185   -1.9176   -0.0425 C.ar      1 <0>         0.6822
     10 N2          3.5891   -0.6152   -0.2518 N.ar      1 <0>        -0.5904
     11 N3          4.8414   -2.5635   -0.0572 N.pl3     1 <0>        -0.5618
     12 C9          6.0906   -1.7976   -0.1696 C.3       1 <0>         0.0881
     13 C10         6.9989   -2.1655    1.0102 C.3       1 <0>         0.1011
     14 N4          7.0724   -3.6301    1.1073 N.pl3     1 <0>        -0.9995
     15 C11         5.8232   -4.3961    1.2197 C.3       1 <0>         0.0990
     16 C12         4.9152   -4.0277    0.0456 C.3       1 <0>         0.1045
     17 S1          8.5366   -4.4035    1.0898 S.o2      1 <0>         2.7243
     18 O1          8.2906   -5.7288    0.6400 O.2       1 <0>        -0.9303
     19 O2          9.4479   -3.5330    0.4332 O.2       1 <0>        -0.9341
     20 C13         9.0782   -4.5315    2.7616 C.2       1 <0>        -0.7704
     21 C14         8.8558   -5.5243    3.6569 C.2       1 <0>         0.0025
     22 C15         9.3848   -5.4109    4.9292 C.2       1 <0>        -0.1505
     23 C16        10.1107   -4.3091    5.2432 C.2       1 <0>        -0.1354
     24 S2         10.0686   -3.3907    3.7128 S.3       1 <0>         0.2302
     25 Br1        10.9547   -3.8645    6.8760 Br        1 <0>         0.0690
     26 N5          0.1929   -2.8289    0.4434 N.pl3     1 <0>        -0.6402
     27 C17         0.3105   -4.2720    0.6669 C.3       1 <0>         0.1282
     28 C18         0.2667   -5.0208   -0.6811 C.3       1 <0>        -0.1335
     29 C19        -0.5307   -6.3123   -0.3725 C.3       1 <0>        -0.1258
     30 C20        -1.6178   -5.8156    0.6127 C.3       1 <0>        -0.1279
     31 C21        -0.8877   -4.7773    1.4895 C.3       1 <0>        -0.1348
     32 H1         -0.9745    1.8631   -0.2014 H         1 <0>         0.1515
     33 H2          1.0941    3.1218   -0.6137 H         1 <0>         0.1549
     34 H3          3.2571    1.9964   -0.6444 H         1 <0>         0.1552
     35 H4         -0.9142   -0.5469    0.1800 H         1 <0>         0.1457
     36 H5          6.5891   -2.0462   -1.1065 H         1 <0>         0.1138
     37 H6          5.8692   -0.7306   -0.1420 H         1 <0>         0.0951
     38 H7          7.9967   -1.7594    0.8442 H         1 <0>         0.1244
     39 H8          6.5841   -1.7581    1.9322 H         1 <0>         0.0874
     40 H9          6.0446   -5.4630    1.1921 H         1 <0>         0.1225
     41 H10         5.3247   -4.1475    2.1566 H         1 <0>         0.0858
     42 H11         3.9177   -4.4333    0.2153 H         1 <0>         0.1274
     43 H12         5.3280   -4.4388   -0.8757 H         1 <0>         0.1003
     44 H13         8.2737   -6.3910    3.3807 H         1 <0>         0.1574
     45 H14         9.2222   -6.1875    5.6619 H         1 <0>         0.1574
     46 H15        -0.6794   -2.4050    0.4605 H         1 <0>         0.4252
     47 H16         1.2416   -4.4942    1.1882 H         1 <0>         0.1105
     48 H17        -0.2500   -4.4238   -1.4325 H         1 <0>         0.0731
     49 H18         1.2752   -5.2656   -1.0144 H         1 <0>         0.0786
     50 H19        -0.9847   -6.7119   -1.2793 H         1 <0>         0.0772
     51 H20         0.1087   -7.0572    0.1012 H         1 <0>         0.0761
     52 H21        -2.4388   -5.3469    0.0702 H         1 <0>         0.0712
     53 H22        -1.9845   -6.6404    1.2236 H         1 <0>         0.0778
     54 H23        -0.5380   -5.2455    2.4097 H         1 <0>         0.0869
     55 H24        -1.5567   -3.9489    1.7225 H         1 <0>         0.0748
     56 H25         4.4160   -0.1340   -0.4119 H         1 <0>         0.4343
@<TRIPOS>BOND
     1    1    6 ar
     2    1    2 ar
     3    1   32 1
     4    2    3 ar
     5    2   33 1
     6    3    4 ar
     7    3   34 1
     8    4   10 ar
     9    4    5 ar
    10    5    6 ar
    11    5    7 ar
    12    6   35 1
    13    7    8 ar
    14    7   26 1
    15    8    9 ar
    16    9   10 ar
    17    9   11 1
    18   10   56 1
    19   11   16 1
    20   11   12 1
    21   12   13 1
    22   12   36 1
    23   12   37 1
    24   13   14 1
    25   13   38 1
    26   13   39 1
    27   14   15 1
    28   14   17 1
    29   15   16 1
    30   15   40 1
    31   15   41 1
    32   16   42 1
    33   16   43 1
    34   17   18 2
    35   17   19 2
    36   17   20 1
    37   20   24 1
    38   20   21 2
    39   21   22 1
    40   21   44 1
    41   22   23 2
    42   22   45 1
    43   23   24 1
    44   23   25 1
    45   26   27 1
    46   26   46 1
    47   27   31 1
    48   27   28 1
    49   27   47 1
    50   28   29 1
    51   28   48 1
    52   28   49 1
    53   29   30 1
    54   29   50 1
    55   29   51 1
    56   30   31 1
    57   30   52 1
    58   30   53 1
    59   31   54 1
    60   31   55 1
@<TRIPOS>MOLECULE
ZINC63572839
   62    66     0     0     0
SMALL
USER_CHARGES

@<TRIPOS>ATOM
      1 C1          1.8350   -0.2481    0.2963 C.3       1 <0>        -0.1540
      2 C2          1.5200   -1.7452    0.3141 C.3       1 <0>         0.0612
      3 O1          0.1176   -1.9392    0.1200 O.3       1 <0>        -0.3457
      4 C3         -0.3283   -3.2103    0.1094 C.2       1 <0>         0.5096
      5 O2          0.4519   -4.1289    0.2607 O.2       1 <0>        -0.5030
      6 C4         -1.7663   -3.4872   -0.0864 C.ar      1 <0>        -0.1011
      7 C5         -2.6647   -2.4331   -0.2664 C.ar      1 <0>        -0.0723
      8 C6         -4.0069   -2.6946   -0.4495 C.ar      1 <0>        -0.1087
      9 C7         -4.4676   -3.9982   -0.4555 C.ar      1 <0>        -0.1028
     10 C8         -3.5820   -5.0540   -0.2773 C.ar      1 <0>         0.1398
     11 C9         -2.2307   -4.8027   -0.0978 C.ar      1 <0>        -0.0851
     12 N1         -4.0539   -6.3719   -0.2838 N.am      1 <0>        -0.6707
     13 C10        -5.3503   -6.6248   -0.0157 C.2       1 <0>         0.7150
     14 O3         -6.1284   -5.7046    0.1460 O.2       1 <0>        -0.5488
     15 N2         -5.7841   -7.8977    0.0732 N.am      1 <0>        -0.6194
     16 C11        -4.8191   -8.9996    0.0026 C.3       1 <0>         0.0833
     17 C12        -5.1950   -9.9367   -1.1599 C.3       1 <0>        -0.1065
     18 C13        -6.6829  -10.1673   -1.0657 C.2       1 <0>         0.0660
     19 C14        -7.3984  -11.2850   -1.0454 C.ar      1 <0>        -0.1543
     20 C15        -7.0160  -12.6959   -1.2166 C.ar      1 <0>         0.0034
     21 C16        -8.0214  -13.6064   -1.1148 C.ar      1 <0>        -0.0788
     22 C17        -9.3530  -13.2571   -0.8626 C.ar      1 <0>         0.0489
     23 C18        -9.7942  -11.9845   -0.7004 C.ar      1 <0>        -0.1830
     24 C19        -8.8305  -10.9385   -0.7941 C.ar      1 <0>         0.3409
     25 N3         -8.9771   -9.6496   -0.7046 N.pl3     1 <0>        -0.5579
     26 C20        -7.6789   -9.0195   -0.9475 C.3       1 <0>         0.0788
     27 H1         -7.7030   -8.4362   -1.8680 H         1 <0>         0.1841
     28 C21        -7.2205   -8.1668    0.2460 C.3       1 <0>         0.2186
     29 H2         -7.7725   -7.2271    0.2643 H         1 <0>         0.1462
     30 C22        -7.4478   -8.9186    1.5321 C.ar      1 <0>        -0.1423
     31 C23        -6.7005  -10.0467    1.8146 C.ar      1 <0>        -0.1253
     32 C24        -6.9090  -10.7363    2.9944 C.ar      1 <0>        -0.1142
     33 C25        -7.8645  -10.2976    3.8918 C.ar      1 <0>        -0.0569
     34 C26        -8.6112   -9.1690    3.6097 C.ar      1 <0>        -0.1123
     35 C27        -8.3997   -8.4769    2.4319 C.ar      1 <0>        -0.0884
     36 C28        -8.0925  -11.0500    5.1775 C.3       1 <0>        -0.1274
     37 Cl1        -7.6332  -15.2873   -1.3081 Cl        1 <0>        -0.0190
     38 H3          2.9047   -0.1002    0.4444 H         1 <0>         0.0833
     39 H4          1.5393    0.1740   -0.6641 H         1 <0>         0.0684
     40 H5          1.2854    0.2483    1.0960 H         1 <0>         0.0683
     41 H6          2.0696   -2.2417   -0.4856 H         1 <0>         0.0706
     42 H7          1.8156   -2.1674    1.2746 H         1 <0>         0.0704
     43 H8         -2.3088   -1.4134   -0.2620 H         1 <0>         0.1435
     44 H9         -4.7002   -1.8782   -0.5882 H         1 <0>         0.1397
     45 H10        -5.5195   -4.1965   -0.5989 H         1 <0>         0.1675
     46 H11        -1.5402   -5.6222    0.0365 H         1 <0>         0.1412
     47 H12        -3.4479   -7.1031   -0.4813 H         1 <0>         0.4099
     48 H13        -3.8197   -8.5974   -0.1634 H         1 <0>         0.1112
     49 H14        -4.8354   -9.5575    0.9389 H         1 <0>         0.1112
     50 H15        -4.9499   -9.4664   -2.1122 H         1 <0>         0.1335
     51 H16        -4.6638  -10.8835   -1.0625 H         1 <0>         0.1286
     52 H17        -5.9958  -12.9914   -1.4122 H         1 <0>         0.1785
     53 H18       -10.0782  -14.0544   -0.7926 H         1 <0>         0.1669
     54 H19       -10.8356  -11.7722   -0.5082 H         1 <0>         0.1779
     55 H20        -5.9540  -10.3895    1.1135 H         1 <0>         0.1314
     56 H21        -6.3256  -11.6181    3.2148 H         1 <0>         0.1306
     57 H22        -9.3580   -8.8264    4.3107 H         1 <0>         0.1335
     58 H23        -8.9805   -7.5930    2.2132 H         1 <0>         0.1307
     59 H24        -7.4416  -10.6482    5.9540 H         1 <0>         0.0811
     60 H25        -9.1331  -10.9403    5.4830 H         1 <0>         0.0738
     61 H26        -7.8678  -12.1057    5.0254 H         1 <0>         0.0727
     62 H27        -9.8059   -9.1848   -0.5099 H         1 <0>         0.4579
@<TRIPOS>BOND
     1    1    2 1
     2    1   38 1
     3    1   39 1
     4    1   40 1
     5    2    3 1
     6    2   41 1
     7    2   42 1
     8    3    4 1
     9    4    5 2
    10    4    6 1
    11    6   11 ar
    12    6    7 ar
    13    7    8 ar
    14    7   43 1
    15    8    9 ar
    16    8   44 1
    17    9   10 ar
    18    9   45 1
    19   10   11 ar
    20   10   12 1
    21   11   46 1
    22   12   13 am
    23   12   47 1
    24   13   14 2
    25   13   15 am
    26   15   28 1
    27   15   16 1
    28   16   17 1
    29   16   48 1
    30   16   49 1
    31   17   18 1
    32   17   50 1
    33   17   51 1
    34   18   26 1
    35   18   19 2
    36   19   24 ar
    37   19   20 ar
    38   20   21 ar
    39   20   52 1
    40   21   22 ar
    41   21   37 1
    42   22   23 ar
    43   22   53 1
    44   23   24 ar
    45   23   54 1
    46   24   25 2
    47   25   26 1
    48   25   62 1
    49   26   27 1
    50   26   28 1
    51   28   29 1
    52   28   30 1
    53   30   35 ar
    54   30   31 ar
    55   31   32 ar
    56   31   55 1
    57   32   33 ar
    58   32   56 1
    59   33   34 ar
    60   33   36 1
    61   34   35 ar
    62   34   57 1
    63   35   58 1
    64   36   59 1
    65   36   60 1
    66   36   61 1
@<TRIPOS>MOLECULE
ZINC09102317
   57    59     0     0     0
SMALL
USER_CHARGES
2-[[4-(4-chlorophenyl)-5-(1-dimethylaminoethyl)-1,2,4-triazol-3-yl]sulfanyl]-N-[4-(trifluoromethyl)phenyl]-propanamide
@<TRIPOS>ATOM
      1 C1         -0.1319   -0.5920   -3.4174 C.3       1 <0>        -0.1758
      2 C2         -1.1226   -0.3927   -2.2686 C.3       1 <0>         0.1347
      3 H1         -1.3996    0.6597   -2.2061 H         1 <0>         0.1482
      4 C3         -0.4827   -0.8215   -0.9734 C.2       1 <0>         0.1222
      5 N1         -0.2746   -2.0473   -0.5832 N.2       1 <0>        -0.2490
      6 N2          0.2847   -2.0546    0.5738 N.2       1 <0>        -0.2757
      7 C4          0.4720   -0.8228    0.9878 C.2       1 <0>         0.1857
      8 N3         -0.0089    0.0050    0.0108 N.pl3     1 <0>        -0.3949
      9 C5         -0.0201    1.4078    0.0179 C.ar      1 <0>         0.0763
     10 C6         -1.2270    2.0933    0.0329 C.ar      1 <0>        -0.0944
     11 C7         -1.2354    3.4744    0.0458 C.ar      1 <0>        -0.0926
     12 C8         -0.0421    4.1748    0.0317 C.ar      1 <0>        -0.0102
     13 C9          1.1623    3.4936    0.0114 C.ar      1 <0>        -0.0868
     14 C10         1.1758    2.1125    0.0043 C.ar      1 <0>        -0.0762
     15 Cl1        -0.0559    5.9107    0.0400 Cl        1 <0>        -0.0312
     16 S1          1.2040   -0.3295    2.5128 S.3       1 <0>         0.1204
     17 C11         1.5662   -1.9527    3.2271 C.3       1 <0>        -0.1182
     18 H2          0.6531   -2.5472    3.2599 H         1 <0>         0.1333
     19 C12         2.6096   -2.6675    2.3662 C.3       1 <0>        -0.1486
     20 C13         2.1023   -1.7782    4.6247 C.2       1 <0>         0.5377
     21 O1          2.5670   -0.7115    4.9671 O.2       1 <0>        -0.4957
     22 N4          2.0654   -2.8074    5.4940 N.am      1 <0>        -0.6612
     23 C14         2.6499   -2.6764    6.7586 C.ar      1 <0>         0.1686
     24 C15         3.2660   -3.7678    7.3568 C.ar      1 <0>        -0.1401
     25 C16         3.8470   -3.6337    8.6026 C.ar      1 <0>        -0.0483
     26 C17         3.8053   -2.4174    9.2593 C.ar      1 <0>        -0.1912
     27 C18         3.1880   -1.3302    8.6686 C.ar      1 <0>        -0.0490
     28 C19         2.6101   -1.4562    7.4205 C.ar      1 <0>        -0.1215
     29 C20         4.4344   -2.2765   10.6215 C.3       1 <0>         0.5087
     30 F1          3.4866   -2.5756   11.6061 F         1 <0>        -0.1746
     31 F2          5.5142   -3.1593   10.7301 F         1 <0>        -0.1754
     32 F3          4.8864   -0.9636   10.7928 F         1 <0>        -0.1752
     33 C21        -3.0411   -0.7331   -3.7060 C.3       1 <0>        -0.0463
     34 C22        -1.9853   -2.6264   -2.6274 C.3       1 <0>        -0.0684
     35 H3          0.1451   -1.6443   -3.4799 H         1 <0>         0.0950
     36 H4         -0.5947   -0.2818   -4.3543 H         1 <0>         0.0976
     37 H5          0.7598    0.0083   -3.2365 H         1 <0>         0.1058
     38 H6         -2.1587    1.5470    0.0387 H         1 <0>         0.1380
     39 H7         -2.1742    4.0081    0.0616 H         1 <0>         0.1540
     40 H8          2.0925    4.0423    0.0007 H         1 <0>         0.1563
     41 H9          2.1159    1.5813   -0.0123 H         1 <0>         0.1474
     42 H10         3.5226   -2.0730    2.3334 H         1 <0>         0.0770
     43 H11         2.8277   -3.6450    2.7963 H         1 <0>         0.0819
     44 H12         2.2218   -2.7937    1.3553 H         1 <0>         0.0895
     45 H13         1.6337   -3.6390    5.2431 H         1 <0>         0.4189
     46 H14         3.2944   -4.7193    6.8467 H         1 <0>         0.1412
     47 H15         4.3305   -4.4808    9.0663 H         1 <0>         0.1446
     48 H16         3.1573   -0.3815    9.1839 H         1 <0>         0.1430
     49 H17         2.1281   -0.6067    6.9597 H         1 <0>         0.1501
     50 H18        -2.3874   -0.8076   -4.5750 H         1 <0>         0.1285
     51 H19        -3.9264   -1.3492   -3.8634 H         1 <0>         0.1308
     52 H20        -3.3415    0.3052   -3.5651 H         1 <0>         0.1225
     53 H21        -1.5181   -2.9645   -1.7025 H         1 <0>         0.1529
     54 H22        -2.8930   -3.2024   -2.8077 H         1 <0>         0.1233
     55 H23        -1.2934   -2.7694   -3.4574 H         1 <0>         0.1253
     56 N5         -2.3417   -1.1986   -2.4899 N.4       1 <0>        -0.3901
     57 H24        -2.9663   -1.0870   -1.6826 H         1 <0>         0.4311
@<TRIPOS>BOND
     1    1    2 1
     2    1   35 1
     3    1   36 1
     4    1   37 1
     5    2    3 1
     6    2    4 1
     7    2   56 1
     8    4    8 1
     9    4    5 2
    10    5    6 1
    11    6    7 2
    12    7    8 1
    13    7   16 1
    14    8    9 1
    15    9   14 ar
    16    9   10 ar
    17   10   11 ar
    18   10   38 1
    19   11   12 ar
    20   11   39 1
    21   12   13 ar
    22   12   15 1
    23   13   14 ar
    24   13   40 1
    25   14   41 1
    26   16   17 1
    27   17   18 1
    28   17   19 1
    29   17   20 1
    30   19   42 1
    31   19   43 1
    32   19   44 1
    33   20   21 2
    34   20   22 am
    35   22   23 1
    36   22   45 1
    37   23   28 ar
    38   23   24 ar
    39   24   25 ar
    40   24   46 1
    41   25   26 ar
    42   25   47 1
    43   26   27 ar
    44   26   29 1
    45   27   28 ar
    46   27   48 1
    47   28   49 1
    48   29   30 1
    49   29   31 1
    50   29   32 1
    51   33   50 1
    52   33   51 1
    53   33   52 1
    54   33   56 1
    55   34   53 1
    56   34   54 1
    57   34   55 1
    58   34   56 1
    59   56   57 1
@<TRIPOS>MOLECULE
ZINC15351525
   63    66     0     0     0
SMALL
USER_CHARGES
N-(2-chlorophenyl)-2-[[2-[(5S)-5-(4-methoxyphenyl)-3-phenyl-4,5-dihydropyrazol-1-yl]-2-oxo-ethyl]-methyl-amino]acetamide
@<TRIPOS>ATOM
      1 C1         -0.8020    1.9748   -1.0975 C.3       1 <0>        -0.0598
      2 C2          1.3467    2.0073    0.0181 C.3       1 <0>        -0.0246
      3 C3          1.2962    3.4936    0.2616 C.2       1 <0>         0.5035
      4 O1          0.2290    4.0444    0.4312 O.2       1 <0>        -0.5036
      5 N1          2.4369    4.2109    0.2909 N.am      1 <0>        -0.6435
      6 C4          2.3848    5.6034    0.4232 C.ar      1 <0>         0.1291
      7 C5          1.3947    6.1921    1.1985 C.ar      1 <0>        -0.1034
      8 C6          1.3494    7.5661    1.3318 C.ar      1 <0>        -0.0949
      9 C7          2.2818    8.3567    0.6850 C.ar      1 <0>        -0.1026
     10 C8          3.2658    7.7747   -0.0925 C.ar      1 <0>        -0.0899
     11 C9          3.3204    6.4000   -0.2256 C.ar      1 <0>        -0.0531
     12 Cl1         4.5558    5.6696   -1.2024 Cl        1 <0>        -0.0561
     13 C10         0.0032   -0.0069    0.0369 C.3       1 <0>        -0.0133
     14 C11        -1.3864   -0.5280    0.2992 C.2       1 <0>         0.5394
     15 O2         -2.3035    0.2481    0.4667 O.2       1 <0>        -0.5017
     16 N2         -1.6100   -1.8562    0.3476 N.am      1 <0>        -0.4482
     17 C12        -2.9118   -2.4965    0.5940 C.3       1 <0>         0.1627
     18 H1         -3.6256   -2.2266   -0.1843 H         1 <0>         0.1115
     19 C13        -2.5895   -4.0031    0.5403 C.3       1 <0>        -0.1368
     20 C14        -1.1039   -4.0479    0.2625 C.2       1 <0>         0.1968
     21 N3         -0.6476   -2.8473    0.1665 N.2       1 <0>        -0.2781
     22 C15        -0.3021   -5.2772    0.1173 C.ar      1 <0>        -0.0608
     23 C16        -0.9085   -6.5294    0.2418 C.ar      1 <0>        -0.0783
     24 C17        -0.1534   -7.6749    0.0996 C.ar      1 <0>        -0.1195
     25 C18         1.2038   -7.5857   -0.1547 C.ar      1 <0>        -0.0865
     26 C19         1.8123   -6.3486   -0.2736 C.ar      1 <0>        -0.1242
     27 C20         1.0685   -5.1948   -0.1395 C.ar      1 <0>        -0.0736
     28 C21        -3.4416   -2.1156    1.9525 C.ar      1 <0>        -0.1440
     29 C22        -2.5766   -2.0111    3.0261 C.ar      1 <0>        -0.0651
     30 C23        -3.0588   -1.6566    4.2711 C.ar      1 <0>        -0.2073
     31 C24        -4.4140   -1.4164    4.4462 C.ar      1 <0>         0.1439
     32 C25        -5.2806   -1.5275    3.3686 C.ar      1 <0>        -0.1455
     33 C26        -4.7925   -1.8768    2.1243 C.ar      1 <0>        -0.0529
     34 O3         -4.8916   -1.0725    5.6711 O.3       1 <0>        -0.3123
     35 C27        -3.9417   -0.9770    6.7345 C.3       1 <0>         0.0254
     36 H2         -1.8269    1.6113   -1.0231 H         1 <0>         0.1386
     37 H3         -0.8006    3.0646   -1.0761 H         1 <0>         0.1380
     38 H4         -0.3608    1.6292   -2.0324 H         1 <0>         0.1209
     39 H5          1.9374    1.5308    0.8005 H         1 <0>         0.1644
     40 H6          1.8047    1.8134   -0.9518 H         1 <0>         0.1694
     41 H7          3.2939    3.7621    0.2203 H         1 <0>         0.4215
     42 H8          0.6632    5.5760    1.7001 H         1 <0>         0.1478
     43 H9          0.5819    8.0241    1.9381 H         1 <0>         0.1398
     44 H10         2.2409    9.4310    0.7873 H         1 <0>         0.1420
     45 H11         3.9923    8.3949   -0.5966 H         1 <0>         0.1453
     46 H12         0.3498   -0.3678   -0.9315 H         1 <0>         0.1681
     47 H13         0.6767   -0.3591    0.8182 H         1 <0>         0.1624
     48 H14        -2.8142   -4.4765    1.4961 H         1 <0>         0.1194
     49 H15        -3.1439   -4.4842   -0.2655 H         1 <0>         0.1205
     50 H16        -1.9669   -6.6005    0.4448 H         1 <0>         0.1321
     51 H17        -0.6218   -8.6437    0.1912 H         1 <0>         0.1349
     52 H18         1.7909   -8.4858   -0.2613 H         1 <0>         0.1321
     53 H19         2.8720   -6.2864   -0.4722 H         1 <0>         0.1321
     54 H20         1.5447   -4.2299   -0.2325 H         1 <0>         0.1305
     55 H21        -1.5224   -2.2025    2.8902 H         1 <0>         0.1140
     56 H22        -2.3822   -1.5708    5.1085 H         1 <0>         0.1306
     57 H23        -6.3359   -1.3407    3.5023 H         1 <0>         0.1385
     58 H24        -5.4668   -1.9631    1.2851 H         1 <0>         0.1339
     59 H25        -4.4536   -0.6958    7.6548 H         1 <0>         0.1067
     60 H26        -3.4514   -1.9408    6.8713 H         1 <0>         0.0584
     61 H27        -3.1955   -0.2215    6.4883 H         1 <0>         0.0556
     62 N4         -0.0299    1.4706    0.0576 N.4       1 <0>        -0.3725
     63 H28        -0.4845    1.7819    0.9241 H         1 <0>         0.4425
@<TRIPOS>BOND
     1    1   36 1
     2    1   37 1
     3    1   38 1
     4    1   62 1
     5    2    3 1
     6    2   39 1
     7    2   40 1
     8    2   62 1
     9    3    4 2
    10    3    5 am
    11    5    6 1
    12    5   41 1
    13    6   11 ar
    14    6    7 ar
    15    7    8 ar
    16    7   42 1
    17    8    9 ar
    18    8   43 1
    19    9   10 ar
    20    9   44 1
    21   10   11 ar
    22   10   45 1
    23   11   12 1
    24   13   14 1
    25   13   46 1
    26   13   47 1
    27   13   62 1
    28   14   15 2
    29   14   16 am
    30   16   21 1
    31   16   17 1
    32   17   18 1
    33   17   19 1
    34   17   28 1
    35   19   20 1
    36   19   48 1
    37   19   49 1
    38   20   21 2
    39   20   22 1
    40   22   27 ar
    41   22   23 ar
    42   23   24 ar
    43   23   50 1
    44   24   25 ar
    45   24   51 1
    46   25   26 ar
    47   25   52 1
    48   26   27 ar
    49   26   53 1
    50   27   54 1
    51   28   33 ar
    52   28   29 ar
    53   29   30 ar
    54   29   55 1
    55   30   31 ar
    56   30   56 1
    57   31   32 ar
    58   31   34 1
    59   32   33 ar
    60   32   57 1
    61   33   58 1
    62   34   35 1
    63   35   59 1
    64   35   60 1
    65   35   61 1
    66   62   63 1
@<TRIPOS>MOLECULE
ZINC33916875
   85    91     0     0     0
SMALL
USER_CHARGES

@<TRIPOS>ATOM
      1 C1          0.2749    1.4715   -0.0021 C.3       1 <0>        -0.1530
      2 C2          0.1428   -0.0490   -0.0227 C.3       1 <0>        -0.0395
      3 C3         -1.2925   -0.4894    0.0888 C.3       1 <0>        -0.1024
      4 C4         -1.7863   -0.4455    1.5375 C.3       1 <0>        -0.1122
      5 C5         -0.8145    0.2301    2.4869 C.3       1 <0>        -0.0673
      6 H1         -0.7280    1.2924    2.2252 H         1 <0>         0.0739
      7 C6          0.5727   -0.4161    2.4489 C.3       1 <0>        -0.0697
      8 H2          0.5315   -1.3500    3.0412 H         1 <0>         0.0727
      9 C7          0.9964   -0.7482    1.0545 C.3       1 <0>        -0.0687
     10 H3          0.8980   -1.8481    0.9149 H         1 <0>         0.0730
     11 C8          2.4212   -0.3626    0.6308 C.3       1 <0>        -0.1177
     12 C9          2.3653   -0.4676   -0.9189 C.3       1 <0>        -0.1169
     13 C10         0.8649   -0.5404   -1.2989 C.3       1 <0>        -0.1349
     14 H4          0.5679   -1.5586   -1.5199 H         1 <0>         0.1059
     15 C11         0.5626    0.3844   -2.4454 C.2       1 <0>         0.3826
     16 O1          1.3176    1.2902   -2.7056 O.2       1 <0>        -0.4558
     17 C12        -0.6825    0.1808   -3.2695 C.3       1 <0>        -0.2212
     18 C13        -0.6778    1.1545   -4.4497 C.3       1 <0>         0.1027
     19 H5         -1.5221    0.9321   -5.1023 H         1 <0>         0.1483
     20 C14         0.6041    0.9910   -5.2231 C.ar      1 <0>        -0.1247
     21 C15         1.2973    2.0768   -5.7163 C.ar      1 <0>        -0.0500
     22 C16         2.4717    1.8860   -6.4268 C.ar      1 <0>        -0.0948
     23 C17         2.9599    0.6085   -6.6466 C.ar      1 <0>         0.0770
     24 C18         2.2656   -0.4893   -6.1498 C.ar      1 <0>         0.0306
     25 C19         1.0895   -0.2945   -5.4390 C.ar      1 <0>         0.1307
     26 O2          0.4082   -1.3658   -4.9516 O.3       1 <0>        -0.3253
     27 C20        -0.5826   -1.9463   -5.8021 C.3       1 <0>         0.0216
     28 O3          2.9416   -1.6257   -6.4933 O.3       1 <0>        -0.2914
     29 C21         3.8354   -1.2354   -7.5525 C.3       1 <0>         0.2092
     30 O4          4.0714    0.1628   -7.3020 O.3       1 <0>        -0.2954
     31 C22         0.8078    3.4861   -5.4978 C.3       1 <0>        -0.1004
     32 C23        -0.6600    3.4634   -5.0692 C.3       1 <0>        -0.0037
     33 N1         -0.8046    2.5250   -3.9458 N.4       1 <0>        -0.3869
     34 C24        -2.1249    2.7008   -3.3263 C.3       1 <0>        -0.0548
     35 C25         1.5365    0.5388    3.1630 C.3       1 <0>        -0.0777
     36 C26         1.0249    0.7251    4.5682 C.2       1 <0>        -0.1655
     37 C27        -0.2207    0.5730    4.8973 C.2       1 <0>        -0.0979
     38 C28        -1.3212    0.2200    3.9275 C.3       1 <0>        -0.0128
     39 C29        -1.9115   -1.1269    4.3278 C.3       1 <0>        -0.0996
     40 C30        -1.3909   -1.5482    5.7001 C.3       1 <0>        -0.1100
     41 C31        -1.5168   -0.4341    6.7330 C.3       1 <0>         0.1111
     42 H6         -1.1905   -0.8154    7.7074 H         1 <0>         0.0523
     43 C32        -0.6330    0.7586    6.3473 C.3       1 <0>        -0.1228
     44 O5         -2.8784   -0.0178    6.8404 O.3       1 <0>        -0.5625
     45 C33        -2.4167    1.2856    4.0331 C.3       1 <0>        -0.1459
     46 H7          1.3247    1.7464   -0.1045 H         1 <0>         0.0716
     47 H8         -0.2943    1.8968   -0.8287 H         1 <0>         0.0321
     48 H9         -0.1114    1.8570    0.9414 H         1 <0>         0.0772
     49 H10        -1.9264    0.1626   -0.5303 H         1 <0>         0.0511
     50 H11        -1.3969   -1.5121   -0.2991 H         1 <0>         0.0688
     51 H12        -2.7509    0.0796    1.5637 H         1 <0>         0.0645
     52 H13        -1.9725   -1.4738    1.8749 H         1 <0>         0.0684
     53 H14         2.6776    0.6440    0.9462 H         1 <0>         0.0745
     54 H15         3.1430   -1.0789    1.0316 H         1 <0>         0.0697
     55 H16         2.8230    0.4121   -1.3696 H         1 <0>         0.0810
     56 H17         2.8787   -1.3696   -1.2492 H         1 <0>         0.0694
     57 H18        -0.7076   -0.8428   -3.6431 H         1 <0>         0.1723
     58 H19        -1.5614    0.3636   -2.6512 H         1 <0>         0.1222
     59 H20         3.0099    2.7394   -6.8121 H         1 <0>         0.1518
     60 H21        -1.3408   -1.1999   -6.0387 H         1 <0>         0.0501
     61 H22        -0.1133   -2.2921   -6.7232 H         1 <0>         0.0594
     62 H23        -1.0493   -2.7897   -5.2933 H         1 <0>         0.1102
     63 H24         4.7673   -1.7977   -7.4941 H         1 <0>         0.1449
     64 H25         3.3623   -1.3759   -8.5244 H         1 <0>         0.0962
     65 H26         1.4053    3.9607   -4.7194 H         1 <0>         0.1109
     66 H27         0.9060    4.0516   -6.4243 H         1 <0>         0.1286
     67 H28        -0.9647    4.4614   -4.7541 H         1 <0>         0.1416
     68 H29        -1.2798    3.1348   -5.9034 H         1 <0>         0.1339
     69 H30        -2.1935    2.0782   -2.4343 H         1 <0>         0.1217
     70 H31        -2.2606    3.7466   -3.0508 H         1 <0>         0.1312
     71 H32        -2.9003    2.4080   -4.0342 H         1 <0>         0.1275
     72 H33         2.5320    0.1024    3.1945 H         1 <0>         0.0732
     73 H34         1.5587    1.4982    2.6544 H         1 <0>         0.0718
     74 H35         1.7302    0.9960    5.3363 H         1 <0>         0.1034
     75 H36        -2.9982   -1.0555    4.3594 H         1 <0>         0.0708
     76 H37        -1.6233   -1.8841    3.5964 H         1 <0>         0.0642
     77 H38        -1.9634   -2.4147    6.0427 H         1 <0>         0.0663
     78 H39        -0.3431   -1.8407    5.6109 H         1 <0>         0.0736
     79 H40         0.2604    0.7726    6.9797 H         1 <0>         0.0726
     80 H41        -1.1761    1.6929    6.4784 H         1 <0>         0.0821
     81 H42        -3.0237    0.6902    7.4829 H         1 <0>         0.3775
     82 H43        -3.2247    1.0459    3.3419 H         1 <0>         0.0530
     83 H44        -2.8045    1.3083    5.0515 H         1 <0>         0.0744
     84 H45        -2.0003    2.2609    3.7811 H         1 <0>         0.0455
     85 H46        -0.0834    2.7016   -3.2626 H         1 <0>         0.4309
@<TRIPOS>BOND
     1    1    2 1
     2    1   46 1
     3    1   47 1
     4    1   48 1
     5    2    9 1
     6    2   13 1
     7    2    3 1
     8    3    4 1
     9    3   49 1
    10    3   50 1
    11    4    5 1
    12    4   51 1
    13    4   52 1
    14    5    6 1
    15    5   38 1
    16    5    7 1
    17    7    8 1
    18    7    9 1
    19    7   35 1
    20    9   10 1
    21    9   11 1
    22   11   12 1
    23   11   53 1
    24   11   54 1
    25   12   13 1
    26   12   55 1
    27   12   56 1
    28   13   14 1
    29   13   15 1
    30   15   16 2
    31   15   17 1
    32   17   18 1
    33   17   57 1
    34   17   58 1
    35   18   19 1
    36   18   33 1
    37   18   20 1
    38   20   25 ar
    39   20   21 ar
    40   21   22 ar
    41   21   31 1
    42   22   23 ar
    43   22   59 1
    44   23   30 1
    45   23   24 ar
    46   24   25 ar
    47   24   28 1
    48   25   26 1
    49   26   27 1
    50   27   60 1
    51   27   61 1
    52   27   62 1
    53   28   29 1
    54   29   30 1
    55   29   63 1
    56   29   64 1
    57   31   32 1
    58   31   65 1
    59   31   66 1
    60   32   33 1
    61   32   67 1
    62   32   68 1
    63   33   34 1
    64   33   85 1
    65   34   69 1
    66   34   70 1
    67   34   71 1
    68   35   36 1
    69   35   72 1
    70   35   73 1
    71   36   37 2
    72   36   74 1
    73   37   43 1
    74   37   38 1
    75   38   39 1
    76   38   45 1
    77   39   40 1
    78   39   75 1
    79   39   76 1
    80   40   41 1
    81   40   77 1
    82   40   78 1
    83   41   42 1
    84   41   43 1
    85   41   44 1
    86   43   79 1
    87   43   80 1
    88   44   81 1
    89   45   82 1
    90   45   83 1
    91   45   84 1
@<TRIPOS>MOLECULE
ZINC44943496
   72    76     0     0     0
SMALL
USER_CHARGES

@<TRIPOS>ATOM
      1 C1          0.0066    1.3886   -0.0118 C.ar      1 <0>        -0.1196
      2 C2          1.2018    2.0830   -0.0219 C.ar      1 <0>        -0.1156
      3 C3          2.4008    1.3951   -0.0318 C.ar      1 <0>        -0.1151
      4 C4          2.4045    0.0127   -0.0311 C.ar      1 <0>        -0.0836
      5 C5          1.2092   -0.6817   -0.0201 C.ar      1 <0>        -0.1129
      6 C6          0.0103    0.0063   -0.0117 C.ar      1 <0>        -0.1146
      7 C7          3.7116   -0.7372   -0.0429 C.3       1 <0>        -0.0856
      8 C8          4.1673   -0.9903    1.3956 C.3       1 <0>         0.1979
      9 H1          4.2143   -0.0436    1.9337 H         1 <0>         0.0964
     10 C9          5.5316   -1.6303    1.3850 C.ar      1 <0>        -0.0958
     11 C10         5.6579   -2.9845    1.1377 C.ar      1 <0>        -0.1057
     12 C11         6.9093   -3.5716    1.1280 C.ar      1 <0>        -0.1185
     13 C12         8.0345   -2.8045    1.3652 C.ar      1 <0>        -0.1175
     14 C13         7.9083   -1.4501    1.6116 C.ar      1 <0>        -0.1184
     15 C14         6.6572   -0.8622    1.6170 C.ar      1 <0>        -0.1050
     16 N1          3.2143   -1.8829    2.0599 N.am      1 <0>        -0.7155
     17 C15         3.0930   -1.8605    3.4020 C.2       1 <0>         0.5361
     18 O1          3.7728   -1.1015    4.0597 O.2       1 <0>        -0.5386
     19 C16         2.1127   -2.7786    4.0854 C.3       1 <0>        -0.0927
     20 H2          1.1043   -2.5691    3.7283 H         1 <0>         0.1107
     21 C17         2.4737   -4.2344    3.7818 C.3       1 <0>        -0.0837
     22 C18         1.6795   -5.1576    4.6587 C.2       1 <0>        -0.1484
     23 C19         1.0675   -4.7857    5.7371 C.2       1 <0>        -0.1553
     24 C20         1.0584   -3.3775    6.2556 C.3       1 <0>        -0.0808
     25 C21         2.1772   -2.5644    5.6029 C.3       1 <0>        -0.0865
     26 H3          3.1410   -2.9057    5.9805 H         1 <0>         0.1000
     27 C22         1.9948   -1.1016    5.9161 C.2       1 <0>         0.5482
     28 O2          1.4027   -0.3840    5.1381 O.2       1 <0>        -0.5176
     29 N2          2.4897   -0.5908    7.0610 N.am      1 <0>        -0.6184
     30 C23         3.3003   -1.4221    7.9620 C.3       1 <0>         0.0914
     31 C24         4.6426   -0.7199    8.2016 C.3       1 <0>         0.0943
     32 N3          4.3818    0.6784    8.5710 N.pl3     1 <0>        -0.5841
     33 C25         3.5712    1.5096    7.6700 C.3       1 <0>         0.0860
     34 C26         2.2336    0.8091    7.4277 C.3       1 <0>         0.1004
     35 C27         4.8922    1.2052    9.7517 C.ar      1 <0>         0.4449
     36 C28         5.7665    0.4467   10.5239 C.ar      1 <0>        -0.2010
     37 C29         6.2667    0.9832   11.6963 C.ar      1 <0>         0.0383
     38 C30         5.8746    2.2652   12.0589 C.ar      1 <0>        -0.1724
     39 C31         5.0038    2.9613   11.2452 C.ar      1 <0>         0.1473
     40 N4          4.5464    2.4263   10.1288 N.ar      1 <0>        -0.5087
     41 H4         -0.9301    1.9261    0.0004 H         1 <0>         0.1215
     42 H5          1.1989    3.1630   -0.0225 H         1 <0>         0.1214
     43 H6          3.3346    1.9376   -0.0404 H         1 <0>         0.1197
     44 H7          1.2122   -1.7617   -0.0200 H         1 <0>         0.1165
     45 H8         -0.9235   -0.5362   -0.0035 H         1 <0>         0.1220
     46 H9          3.5790   -1.6903   -0.5550 H         1 <0>         0.0819
     47 H10         4.4648   -0.1464   -0.5641 H         1 <0>         0.0921
     48 H11         4.7788   -3.5839    0.9524 H         1 <0>         0.1175
     49 H12         7.0079   -4.6297    0.9355 H         1 <0>         0.1228
     50 H13         9.0122   -3.2633    1.3583 H         1 <0>         0.1225
     51 H14         8.7874   -0.8508    1.7972 H         1 <0>         0.1219
     52 H15         6.5589    0.1966    1.8059 H         1 <0>         0.1189
     53 H16         2.6706   -2.4900    1.5338 H         1 <0>         0.3995
     54 H17         2.2537   -4.4508    2.7364 H         1 <0>         0.0848
     55 H18         3.5372   -4.3885    3.9645 H         1 <0>         0.0830
     56 H19         1.6147   -6.1969    4.3724 H         1 <0>         0.1154
     57 H20         0.5304   -5.5357    6.2987 H         1 <0>         0.1151
     58 H21         0.0989   -2.9142    6.0261 H         1 <0>         0.0840
     59 H22         1.2023   -3.3894    7.3360 H         1 <0>         0.0804
     60 H23         2.7791   -1.5485    8.9109 H         1 <0>         0.0820
     61 H24         3.4735   -2.3961    7.5043 H         1 <0>         0.1145
     62 H25         5.1770   -1.2184    9.0103 H         1 <0>         0.1118
     63 H26         5.2401   -0.7523    7.2905 H         1 <0>         0.1047
     64 H27         3.3980    2.4836    8.1277 H         1 <0>         0.0858
     65 H28         4.0924    1.6361    6.7211 H         1 <0>         0.1085
     66 H29         1.7025    1.3082    6.6172 H         1 <0>         0.1189
     67 H30         1.6347    0.8452    8.3377 H         1 <0>         0.0759
     68 H31         6.0503   -0.5476   10.2122 H         1 <0>         0.1785
     69 H32         6.9468    0.4178   12.3162 H         1 <0>         0.1742
     70 H33         6.2469    2.7128   12.9685 H         1 <0>         0.1803
     71 H34         4.6960    3.9584   11.5235 H         1 <0>         0.2058
     72 H35         3.9386    2.9387    9.5730 H         1 <0>         0.4376
@<TRIPOS>BOND
     1    1    6 ar
     2    1    2 ar
     3    1   41 1
     4    2    3 ar
     5    2   42 1
     6    3    4 ar
     7    3   43 1
     8    4    5 ar
     9    4    7 1
    10    5    6 ar
    11    5   44 1
    12    6   45 1
    13    7    8 1
    14    7   46 1
    15    7   47 1
    16    8    9 1
    17    8   10 1
    18    8   16 1
    19   10   15 ar
    20   10   11 ar
    21   11   12 ar
    22   11   48 1
    23   12   13 ar
    24   12   49 1
    25   13   14 ar
    26   13   50 1
    27   14   15 ar
    28   14   51 1
    29   15   52 1
    30   16   17 am
    31   16   53 1
    32   17   18 2
    33   17   19 1
    34   19   20 1
    35   19   25 1
    36   19   21 1
    37   21   22 1
    38   21   54 1
    39   21   55 1
    40   22   23 2
    41   22   56 1
    42   23   24 1
    43   23   57 1
    44   24   25 1
    45   24   58 1
    46   24   59 1
    47   25   26 1
    48   25   27 1
    49   27   28 2
    50   27   29 am
    51   29   34 1
    52   29   30 1
    53   30   31 1
    54   30   60 1
    55   30   61 1
    56   31   32 1
    57   31   62 1
    58   31   63 1
    59   32   33 1
    60   32   35 1
    61   33   34 1
    62   33   64 1
    63   33   65 1
    64   34   66 1
    65   34   67 1
    66   35   40 ar
    67   35   36 ar
    68   36   37 ar
    69   36   68 1
    70   37   38 ar
    71   37   69 1
    72   38   39 ar
    73   38   70 1
    74   39   40 ar
    75   39   71 1
    76   40   72 1
@<TRIPOS>MOLECULE
ZINC63620088
   64    68     0     0     0
SMALL
USER_CHARGES

@<TRIPOS>ATOM
      1 C1         -0.0184    1.5028    0.0103 C.3       1 <0>        -0.1172
      2 C2          0.0021   -0.0041    0.0020 C.ar      1 <0>        -0.1063
      3 C3          0.0055   -0.6728   -1.1872 C.ar      1 <0>        -0.0328
      4 C4          0.0245   -2.0758   -1.2024 C.ar      1 <0>         0.0272
      5 C5          0.0399   -2.7789    0.0169 C.ar      1 <0>         0.1469
      6 C6          0.0360   -2.0756    1.2175 C.ar      1 <0>        -0.1652
      7 C7          0.0229   -0.6977    1.2047 C.ar      1 <0>        -0.0215
      8 C8          0.0254    0.0621    2.5061 C.3       1 <0>        -0.1258
      9 N1          0.0591   -4.1593    0.0172 N.am      1 <0>        -0.5072
     10 C9          0.0628   -4.8135   -1.1650 C.2       1 <0>         0.4990
     11 O1          0.0793   -6.0308   -1.1955 O.2       1 <0>        -0.5100
     12 C10         0.0464   -4.0398   -2.4113 C.2       1 <0>         0.1128
     13 N2          0.0284   -2.7383   -2.3751 N.2       1 <0>        -0.4037
     14 C11         0.0508   -4.7540   -3.7383 C.3       1 <0>        -0.0930
     15 C12         0.0757   -4.9030    1.2792 C.3       1 <0>         0.1311
     16 C13        -1.3393   -5.1778    1.7190 C.ar      1 <0>        -0.0816
     17 C14        -1.9993   -4.2670    2.5246 C.ar      1 <0>        -0.1076
     18 C15        -3.2947   -4.5125    2.9307 C.ar      1 <0>        -0.0563
     19 C16        -3.9394   -5.6828    2.5271 C.ar      1 <0>        -0.1352
     20 C17        -3.2678   -6.5975    1.7143 C.ar      1 <0>        -0.0867
     21 C18        -1.9746   -6.3372    1.3107 C.ar      1 <0>        -0.0980
     22 C19        -5.3274   -5.9526    2.9589 C.2       1 <0>         0.5678
     23 O2         -5.9096   -5.1545    3.6670 O.2       1 <0>        -0.5246
     24 N3         -5.9471   -7.0836    2.5674 N.am      1 <0>        -0.7334
     25 C20        -7.3225   -7.3510    2.9953 C.3       1 <0>         0.1265
     26 C21        -7.7853   -8.6898    2.4172 C.3       1 <0>        -0.1090
     27 C22        -9.2001   -8.9648    2.8573 C.2       1 <0>         0.0814
     28 C23       -10.3329   -8.6935    2.1699 C.ar      1 <0>        -0.1624
     29 C24       -10.5772   -8.0838    0.8573 C.ar      1 <0>        -0.0068
     30 C25       -11.8524   -7.9402    0.4275 C.ar      1 <0>        -0.0748
     31 C26       -12.9434   -8.3583    1.2039 C.ar      1 <0>         0.0537
     32 C27       -12.7979   -8.9267    2.4193 C.ar      1 <0>        -0.1883
     33 C28       -11.5014   -9.1266    2.9691 C.ar      1 <0>         0.3298
     34 N4        -11.1063   -9.6454    4.1063 N.pl3     1 <0>        -0.5770
     35 C29        -9.6405   -9.6061    4.1543 C.3       1 <0>         0.0592
     36 Cl1       -12.1456   -7.2195   -1.1244 Cl        1 <0>        -0.0128
     37 H1          1.0042    1.8801    0.0026 H         1 <0>         0.0756
     38 H2         -0.5455    1.8639   -0.8728 H         1 <0>         0.0713
     39 H3         -0.5286    1.8543    0.9071 H         1 <0>         0.0728
     40 H4         -0.0067   -0.1226   -2.1165 H         1 <0>         0.1444
     41 H5          0.0473   -2.6082    2.1570 H         1 <0>         0.1360
     42 H6         -1.0015    0.2317    2.8298 H         1 <0>         0.0806
     43 H7          0.5543   -0.5163    3.2636 H         1 <0>         0.0723
     44 H8          0.5252    1.0206    2.3663 H         1 <0>         0.0795
     45 H9         -0.9757   -4.9408   -4.0538 H         1 <0>         0.0869
     46 H10         0.5526   -4.1352   -4.4822 H         1 <0>         0.0891
     47 H11         0.5786   -5.7024   -3.6388 H         1 <0>         0.0886
     48 H12         0.6020   -5.8470    1.1378 H         1 <0>         0.1146
     49 H13         0.5851   -4.3136    2.0416 H         1 <0>         0.1062
     50 H14        -1.4992   -3.3620    2.8366 H         1 <0>         0.1345
     51 H15        -3.8087   -3.8009    3.5599 H         1 <0>         0.1408
     52 H16        -3.7611   -7.5049    1.3986 H         1 <0>         0.1272
     53 H17        -1.4553   -7.0420    0.6782 H         1 <0>         0.1404
     54 H18        -5.4825   -7.7206    2.0023 H         1 <0>         0.4062
     55 H19        -7.3629   -7.3918    4.0838 H         1 <0>         0.0810
     56 H20        -7.9756   -6.5553    2.6370 H         1 <0>         0.0811
     57 H21        -7.7449   -8.6490    1.3287 H         1 <0>         0.1184
     58 H22        -7.1322   -9.4855    2.7754 H         1 <0>         0.1228
     59 H23        -9.7517   -7.7543    0.2438 H         1 <0>         0.1704
     60 H24       -13.9406   -8.2194    0.8131 H         1 <0>         0.1711
     61 H25       -13.6707   -9.2311    2.9777 H         1 <0>         0.1714
     62 H26        -9.2375  -10.6161    4.2298 H         1 <0>         0.1804
     63 H27        -9.3106   -9.0050    5.0016 H         1 <0>         0.1794
     64 H28       -11.6861   -9.9998    4.7986 H         1 <0>         0.4587
@<TRIPOS>BOND
     1    1    2 1
     2    1   37 1
     3    1   38 1
     4    1   39 1
     5    2    7 ar
     6    2    3 ar
     7    3    4 ar
     8    3   40 1
     9    4   13 1
    10    4    5 ar
    11    5    6 ar
    12    5    9 1
    13    6    7 ar
    14    6   41 1
    15    7    8 1
    16    8   42 1
    17    8   43 1
    18    8   44 1
    19    9   10 am
    20    9   15 1
    21   10   11 2
    22   10   12 1
    23   12   13 2
    24   12   14 1
    25   14   45 1
    26   14   46 1
    27   14   47 1
    28   15   16 1
    29   15   48 1
    30   15   49 1
    31   16   21 ar
    32   16   17 ar
    33   17   18 ar
    34   17   50 1
    35   18   19 ar
    36   18   51 1
    37   19   20 ar
    38   19   22 1
    39   20   21 ar
    40   20   52 1
    41   21   53 1
    42   22   23 2
    43   22   24 am
    44   24   25 1
    45   24   54 1
    46   25   26 1
    47   25   55 1
    48   25   56 1
    49   26   27 1
    50   26   57 1
    51   26   58 1
    52   27   35 1
    53   27   28 2
    54   28   33 ar
    55   28   29 ar
    56   29   30 ar
    57   29   59 1
    58   30   31 ar
    59   30   36 1
    60   31   32 ar
    61   31   60 1
    62   32   33 ar
    63   32   61 1
    64   33   34 2
    65   34   35 1
    66   34   64 1
    67   35   62 1
    68   35   63 1
@<TRIPOS>MOLECULE
ZINC11871137
   68    72     0     0     0
SMALL
USER_CHARGES
N-[(1R,2R)-2-methoxy-1'-[(E)-3-(2-methoxyphenyl)prop-2-enyl]spiro[indane-3,4'-piperidine]-1-yl]thiophene-2-carboxamide
@<TRIPOS>ATOM
      1 C1         -0.1583    3.2192    8.1873 C.3       1 <0>         0.0229
      2 O1         -0.6792    2.5945    7.0123 O.3       1 <0>        -0.3157
      3 C2         -0.5775    1.2421    6.9363 C.ar      1 <0>         0.1584
      4 C3          0.0101    0.5297    7.9692 C.ar      1 <0>        -0.2104
      5 C4          0.1126   -0.8462    7.8910 C.ar      1 <0>        -0.0526
      6 C5         -0.3700   -1.5217    6.7834 C.ar      1 <0>        -0.1580
      7 C6         -0.9620   -0.8270    5.7490 C.ar      1 <0>        -0.0611
      8 C7         -1.0664    0.5626    5.8142 C.ar      1 <0>        -0.1313
      9 C8         -1.6951    1.3127    4.7076 C.2       1 <0>         0.0003
     10 C9         -2.1571    0.6656    3.6463 C.2       1 <0>        -0.2638
     11 C10        -2.7985    1.4308    2.5174 C.3       1 <0>         0.0434
     12 C11        -0.7306    1.5802    1.2669 C.3       1 <0>        -0.0014
     13 C12        -0.0127    1.0858    0.0080 C.3       1 <0>        -0.1244
     14 C13        -0.7521    1.5920   -1.2277 C.3       1 <0>        -0.0206
     15 C14        -2.2119    1.1476   -1.1910 C.3       1 <0>        -0.1360
     16 C15        -2.8592    1.6399    0.1064 C.3       1 <0>        -0.0082
     17 C16        -0.0808    1.0912   -2.4839 C.ar      1 <0>        -0.0905
     18 C17         0.4090   -0.1638   -2.8061 C.ar      1 <0>        -0.1010
     19 C18         0.9931   -0.3879   -4.0371 C.ar      1 <0>        -0.1058
     20 C19         1.0901    0.6433   -4.9529 C.ar      1 <0>        -0.1070
     21 C20         0.6021    1.8953   -4.6345 C.ar      1 <0>        -0.0816
     22 C21         0.0155    2.1224   -3.4009 C.ar      1 <0>        -0.0987
     23 C22        -0.5876    3.3833   -2.8188 C.3       1 <0>         0.1644
     24 H1          0.0551    4.2395   -3.0237 H         1 <0>         0.1139
     25 C23        -0.6708    3.1276   -1.2980 C.3       1 <0>         0.0832
     26 H2         -1.5670    3.5831   -0.8767 H         1 <0>         0.0840
     27 O2          0.5003    3.6057   -0.6333 O.3       1 <0>        -0.3587
     28 C24         0.3531    4.9062   -0.0597 C.3       1 <0>         0.0198
     29 N1         -1.9261    3.6079   -3.3703 N.am      1 <0>        -0.7199
     30 C25        -2.0770    4.3218   -4.5035 C.2       1 <0>         0.6120
     31 O3         -1.1013    4.7799   -5.0685 O.2       1 <0>        -0.5085
     32 C26        -3.4163    4.5465   -5.0553 C.2       1 <0>        -0.2505
     33 C27        -3.7860    5.2434   -6.1950 C.2       1 <0>        -0.0569
     34 C28        -5.1263    5.3001   -6.4858 C.2       1 <0>        -0.1772
     35 C29        -6.0111    4.6829   -5.6596 C.2       1 <0>        -0.1645
     36 S1         -4.9947    3.9877   -4.4394 S.3       1 <0>         0.1186
     37 H3         -0.6805    2.8365    9.0642 H         1 <0>         0.0621
     38 H4          0.9060    3.0002    8.2738 H         1 <0>         0.0618
     39 H5         -0.3031    4.2975    8.1200 H         1 <0>         0.1073
     40 H6          0.3881    1.0503    8.8366 H         1 <0>         0.1368
     41 H7          0.5714   -1.3974    8.6985 H         1 <0>         0.1339
     42 H8         -0.2864   -2.5972    6.7307 H         1 <0>         0.1324
     43 H9         -1.3411   -1.3579    4.8883 H         1 <0>         0.1317
     44 H10        -1.7785    2.3881    4.7630 H         1 <0>         0.1313
     45 H11        -2.0737   -0.4097    3.5909 H         1 <0>         0.1359
     46 H12        -2.7130    2.5004    2.7089 H         1 <0>         0.1280
     47 H13        -3.8512    1.1575    2.4453 H         1 <0>         0.1342
     48 H14        -0.2206    1.1962    2.1505 H         1 <0>         0.1339
     49 H15        -0.7207    2.6700    1.2866 H         1 <0>         0.1269
     50 H16         0.0021   -0.0041    0.0020 H         1 <0>         0.0905
     51 H17         1.0097    1.4635    0.0003 H         1 <0>         0.1264
     52 H18        -2.7421    1.5693   -2.0449 H         1 <0>         0.1087
     53 H19        -2.2620    0.0595   -1.2330 H         1 <0>         0.1058
     54 H20        -2.8340    2.7292    0.1344 H         1 <0>         0.1272
     55 H21        -3.8938    1.2992    0.1483 H         1 <0>         0.1376
     56 H22         0.3338   -0.9702   -2.0916 H         1 <0>         0.1209
     57 H23         1.3742   -1.3678   -4.2841 H         1 <0>         0.1307
     58 H24         1.5472    0.4699   -5.9159 H         1 <0>         0.1312
     59 H25         0.6778    2.7003   -5.3505 H         1 <0>         0.1287
     60 H26        -0.4506    4.8898    0.6765 H         1 <0>         0.0425
     61 H27         1.2847    5.1968    0.4258 H         1 <0>         0.1012
     62 H28         0.1127    5.6241   -0.8439 H         1 <0>         0.0534
     63 H29        -2.7038    3.2428   -2.9200 H         1 <0>         0.3936
     64 H30        -3.0516    5.7211   -6.8265 H         1 <0>         0.1511
     65 H31        -5.4735    5.8288   -7.3612 H         1 <0>         0.1471
     66 H32        -7.0866    4.6334   -5.7451 H         1 <0>         0.1952
     67 N2         -2.1200    1.0728    1.2549 N.4       1 <0>        -0.3920
     68 H33        -2.1001    0.0501    1.1656 H         1 <0>         0.4274
@<TRIPOS>BOND
     1    1    2 1
     2    1   37 1
     3    1   38 1
     4    1   39 1
     5    2    3 1
     6    3    8 ar
     7    3    4 ar
     8    4    5 ar
     9    4   40 1
    10    5    6 ar
    11    5   41 1
    12    6    7 ar
    13    6   42 1
    14    7    8 ar
    15    7   43 1
    16    8    9 1
    17    9   10 2
    18    9   44 1
    19   10   11 1
    20   10   45 1
    21   11   46 1
    22   11   47 1
    23   11   67 1
    24   12   13 1
    25   12   48 1
    26   12   49 1
    27   12   67 1
    28   13   14 1
    29   13   50 1
    30   13   51 1
    31   14   25 1
    32   14   15 1
    33   14   17 1
    34   15   16 1
    35   15   52 1
    36   15   53 1
    37   16   54 1
    38   16   55 1
    39   16   67 1
    40   17   22 ar
    41   17   18 ar
    42   18   19 ar
    43   18   56 1
    44   19   20 ar
    45   19   57 1
    46   20   21 ar
    47   20   58 1
    48   21   22 ar
    49   21   59 1
    50   22   23 1
    51   23   24 1
    52   23   25 1
    53   23   29 1
    54   25   26 1
    55   25   27 1
    56   27   28 1
    57   28   60 1
    58   28   61 1
    59   28   62 1
    60   29   30 am
    61   29   63 1
    62   30   31 2
    63   30   32 1
    64   32   36 1
    65   32   33 2
    66   33   34 1
    67   33   64 1
    68   34   35 2
    69   34   65 1
    70   35   36 1
    71   35   66 1
    72   67   68 1
@<TRIPOS>MOLECULE
ZINC21775206
   78    81     0     0     0
SMALL
USER_CHARGES
2,3,4,5,6-pentamethyl-N-[(2S)-2-(1-methyl-3,4-dihydro-2H-quinolin-6-yl)-2-(4-methylpiperazin-1-yl)ethyl]benzenesulfonamide
@<TRIPOS>ATOM
      1 C1          1.2954   -3.1274   12.6213 C.3       1 <0>        -0.1315
      2 C2          1.1041   -2.4311   11.2986 C.ar      1 <0>        -0.0192
      3 C3          0.3678   -3.0378   10.2982 C.ar      1 <0>        -0.1156
      4 C4          0.1924   -2.3991    9.0849 C.ar      1 <0>         0.0165
      5 C5          0.7524   -1.1533    8.8722 C.ar      1 <0>        -0.6896
      6 C6          1.4927   -0.5487    9.8709 C.ar      1 <0>         0.0246
      7 C7          1.6645   -1.1855   11.0858 C.ar      1 <0>        -0.1106
      8 C8          2.4667   -0.5239   12.1765 C.3       1 <0>        -0.1287
      9 C9          2.1084    0.8068    9.6369 C.3       1 <0>        -0.1517
     10 S1          0.5288   -0.3391    7.3257 S.o2      1 <0>         2.6930
     11 O1          0.9664    1.0008    7.5051 O.2       1 <0>        -0.9482
     12 O2         -0.7834   -0.6593    6.8842 O.2       1 <0>        -0.9473
     13 N1          1.5743   -1.0383    6.2486 N.pl3     1 <0>        -1.1188
     14 C10         1.4050   -2.4435    5.8702 C.3       1 <0>         0.1189
     15 C11         2.2044   -2.7287    4.5972 C.3       1 <0>         0.1375
     16 H1          3.2703   -2.4985    4.7417 H         1 <0>         0.0661
     17 C12         1.6546   -1.9024    3.4631 C.ar      1 <0>        -0.1267
     18 C13         0.5143   -2.3127    2.7964 C.ar      1 <0>        -0.0678
     19 C14         0.0154   -1.5574    1.7574 C.ar      1 <0>        -0.1649
     20 C15         0.6540   -0.3774    1.3709 C.ar      1 <0>         0.1425
     21 C16         1.7912    0.0313    2.0450 C.ar      1 <0>        -0.1213
     22 C17         2.2886   -0.7350    3.0875 C.ar      1 <0>        -0.0788
     23 C18         2.5178    1.3038    1.6886 C.3       1 <0>        -0.0844
     24 C19         2.0613    1.7884    0.3105 C.3       1 <0>        -0.1252
     25 C20         0.5287    1.7386    0.2763 C.3       1 <0>         0.0520
     26 N2          0.1043    0.3376    0.3080 N.pl3     1 <0>        -0.4969
     27 C21        -1.3609    0.2312    0.3037 C.3       1 <0>         0.0180
     28 N3          2.0973   -4.1547    4.2609 N.3       1 <0>        -0.5325
     29 C22         2.4541   -4.9955    5.4121 C.3       1 <0>         0.0129
     30 C23         2.2536   -6.4681    5.0465 C.3       1 <0>         0.0003
     31 N4          3.0840   -6.7978    3.8797 N.4       1 <0>        -0.4026
     32 C24         2.7272   -5.9570    2.7284 C.3       1 <0>         0.0007
     33 C25         2.9276   -4.4844    3.0941 C.3       1 <0>         0.0262
     34 C26         2.9769   -8.2238    3.5434 C.3       1 <0>        -0.0452
     35 C27        -0.6098   -3.0607    7.9941 C.3       1 <0>        -0.1757
     36 C28        -0.2431   -4.3957   10.5302 C.3       1 <0>        -0.1197
     37 H2          0.7804   -4.0992   12.6019 H         1 <0>         0.0745
     38 H3          0.8762   -2.5063   13.4266 H         1 <0>         0.0803
     39 H4          2.3692   -3.2849   12.8008 H         1 <0>         0.0781
     40 H5          2.8286    0.4533   11.8241 H         1 <0>         0.0809
     41 H6          3.3250   -1.1603   12.4378 H         1 <0>         0.0724
     42 H7          1.8320   -0.3817   13.0636 H         1 <0>         0.0745
     43 H8          2.6549    1.1218   10.5381 H         1 <0>         0.0810
     44 H9          1.3155    1.5363    9.4151 H         1 <0>         0.1059
     45 H10         2.8042    0.7516    8.7867 H         1 <0>         0.0809
     46 H11         2.4828   -0.4942    5.9509 H         1 <0>         0.4412
     47 H12         1.7684   -3.0886    6.6837 H         1 <0>         0.0635
     48 H13         0.3397   -2.6484    5.6879 H         1 <0>         0.1021
     49 H14         0.0150   -3.2242    3.0903 H         1 <0>         0.1275
     50 H15        -0.8752   -1.8801    1.2387 H         1 <0>         0.1283
     51 H16         3.1789   -0.4167    3.6094 H         1 <0>         0.1192
     52 H17         2.2947    2.0760    2.4395 H         1 <0>         0.0781
     53 H18         3.6011    1.1141    1.6685 H         1 <0>         0.0787
     54 H19         2.4122    2.8184    0.1493 H         1 <0>         0.0822
     55 H20         2.4808    1.1323   -0.4664 H         1 <0>         0.0765
     56 H21         0.1250    2.2714    1.1499 H         1 <0>         0.0511
     57 H22         0.1667    2.2181   -0.6451 H         1 <0>         0.0901
     58 H23        -1.7676    0.8033   -0.5433 H         1 <0>         0.0811
     59 H24        -1.7607    0.6359    1.2452 H         1 <0>         0.0439
     60 H25        -1.6515   -0.8252    0.2059 H         1 <0>         0.0806
     61 H26         3.5071   -4.8232    5.6796 H         1 <0>         0.0642
     62 H27         1.8117   -4.7382    6.2672 H         1 <0>         0.1273
     63 H28         2.5474   -7.1004    5.8973 H         1 <0>         0.1361
     64 H29         1.1949   -6.6454    4.8062 H         1 <0>         0.1368
     65 H30         3.3697   -6.2142    1.8734 H         1 <0>         0.1362
     66 H31         1.6743   -6.1294    2.4607 H         1 <0>         0.1361
     67 H32         2.6334   -3.8512    2.2441 H         1 <0>         0.1293
     68 H33         3.9860   -4.3062    3.3351 H         1 <0>         0.0618
     69 H34         3.6069   -8.4425    2.6686 H         1 <0>         0.1244
     70 H35         1.9298   -8.4682    3.3115 H         1 <0>         0.1202
     71 H36         3.3139   -8.8284    4.3983 H         1 <0>         0.1241
     72 H37        -0.6382   -2.4055    7.1110 H         1 <0>         0.1062
     73 H38        -1.6348   -3.2405    8.3504 H         1 <0>         0.0903
     74 H39        -0.1419   -4.0191    7.7247 H         1 <0>         0.0726
     75 H40        -0.7868   -4.7121    9.6279 H         1 <0>         0.0709
     76 H41        -0.9405   -4.3438   11.3793 H         1 <0>         0.0744
     77 H42         0.5522   -5.1223   10.7528 H         1 <0>         0.0702
     78 H43         4.1326   -6.5908    4.1396 H         1 <0>         0.4402
@<TRIPOS>BOND
     1    1    2 1
     2    1   37 1
     3    1   38 1
     4    1   39 1
     5    2    7 ar
     6    2    3 ar
     7    3    4 ar
     8    3   36 1
     9    4    5 ar
    10    4   35 1
    11    5    6 ar
    12    5   10 1
    13    6    7 ar
    14    6    9 1
    15    7    8 1
    16    8   40 1
    17    8   41 1
    18    8   42 1
    19    9   43 1
    20    9   44 1
    21    9   45 1
    22   10   11 2
    23   10   12 2
    24   10   13 1
    25   13   14 1
    26   13   46 1
    27   14   15 1
    28   14   47 1
    29   14   48 1
    30   15   16 1
    31   15   17 1
    32   15   28 1
    33   17   22 ar
    34   17   18 ar
    35   18   19 ar
    36   18   49 1
    37   19   20 ar
    38   19   50 1
    39   20   26 1
    40   20   21 ar
    41   21   22 ar
    42   21   23 1
    43   22   51 1
    44   23   24 1
    45   23   52 1
    46   23   53 1
    47   24   25 1
    48   24   54 1
    49   24   55 1
    50   25   26 1
    51   25   56 1
    52   25   57 1
    53   26   27 1
    54   27   58 1
    55   27   59 1
    56   27   60 1
    57   28   33 1
    58   28   29 1
    59   29   30 1
    60   29   61 1
    61   29   62 1
    62   30   31 1
    63   30   63 1
    64   30   64 1
    65   31   32 1
    66   31   34 1
    67   31   78 1
    68   32   33 1
    69   32   65 1
    70   32   66 1
    71   33   67 1
    72   33   68 1
    73   34   69 1
    74   34   70 1
    75   34   71 1
    76   35   72 1
    77   35   73 1
    78   35   74 1
    79   36   75 1
    80   36   76 1
    81   36   77 1
@<TRIPOS>MOLECULE
ZINC38546629
   68    73     0     0     0
SMALL
USER_CHARGES

@<TRIPOS>ATOM
      1 C1         -0.2105    0.8956   -0.0477 C.ar      1 <0>        -0.0950
      2 C2          0.8693    1.7257    0.1886 C.ar      1 <0>        -0.0941
      3 C3          2.1529    1.2132    0.1666 C.ar      1 <0>        -0.0816
      4 C4          2.3567   -0.1295   -0.0913 C.ar      1 <0>        -0.1222
      5 C5          1.2769   -0.9598   -0.3267 C.ar      1 <0>        -0.1459
      6 C6         -0.0067   -0.4470   -0.3060 C.ar      1 <0>        -0.0912
      7 C7          3.7562   -0.6880   -0.1163 C.3       1 <0>         0.1394
      8 H1          4.4343    0.0499   -0.5452 H         1 <0>         0.1557
      9 C8          4.1922   -1.0139    1.2890 C.2       1 <0>        -0.1941
     10 C9          5.1346   -0.2110    1.9326 C.2       1 <0>        -0.0955
     11 C10         5.4772   -0.5697    3.1990 C.2       1 <0>        -0.1629
     12 S1          4.5007   -2.0160    3.5113 S.3       1 <0>         0.2317
     13 C11         3.6639   -2.0876    1.9346 C.2       1 <0>         0.0546
     14 N1          2.7159   -3.0076    1.4823 N.am      1 <0>        -0.6342
     15 C12         2.4076   -4.0825    2.2346 C.2       1 <0>         0.6075
     16 O1          2.9555   -4.2512    3.3084 O.2       1 <0>        -0.4605
     17 C13         1.4122   -5.0486    1.7597 C.2       1 <0>        -0.1150
     18 C14         1.0046   -6.1717    2.4211 C.2       1 <0>        -0.0777
     19 C15         0.0469   -6.7950    1.6059 C.2       1 <0>        -0.2192
     20 C16        -0.0865   -6.0348    0.4967 C.2       1 <0>         0.0188
     21 O2          0.7341   -4.9807    0.5953 O.3       1 <0>        -0.1789
     22 C17         6.4535    0.1081    4.1051 C.3       1 <0>        -0.0472
     23 C18         7.3012    1.0753    3.2649 C.3       1 <0>        -0.1147
     24 C19         6.3673    1.9002    2.3747 C.3       1 <0>        -0.1228
     25 C20         5.7694    1.0142    1.2811 C.3       1 <0>        -0.0627
     26 N2          3.7816   -1.9091   -0.9325 N.4       1 <0>        -0.3844
     27 C21         5.1119   -2.5249   -0.8475 C.3       1 <0>        -0.0256
     28 C22         5.1062   -3.8572   -1.6044 C.3       1 <0>         0.1024
     29 N3          4.6372   -3.6118   -2.9769 N.pl3     1 <0>        -0.6420
     30 C23         3.3892   -2.8544   -3.1581 C.3       1 <0>         0.1008
     31 C24         3.4759   -1.5694   -2.3279 C.3       1 <0>        -0.0314
     32 C25         5.3563   -4.0848   -4.0769 C.ar      1 <0>         0.1974
     33 C26         6.4642   -4.9008   -3.8857 C.ar      1 <0>        -0.1862
     34 C27         7.1727   -5.3672   -4.9756 C.ar      1 <0>        -0.0701
     35 C28         6.7806   -5.0225   -6.2561 C.ar      1 <0>        -0.1564
     36 C29         5.6782   -4.2104   -6.4500 C.ar      1 <0>        -0.0706
     37 C30         4.9618   -3.7452   -5.3648 C.ar      1 <0>        -0.1869
     38 H2         -1.2137    1.2950   -0.0260 H         1 <0>         0.1385
     39 H3          0.7100    2.7747    0.3901 H         1 <0>         0.1399
     40 H4          2.9966    1.8619    0.3505 H         1 <0>         0.1357
     41 H5          1.4362   -2.0088   -0.5285 H         1 <0>         0.0985
     42 H6         -0.8503   -1.0957   -0.4903 H         1 <0>         0.1371
     43 H7          2.2793   -2.8732    0.6266 H         1 <0>         0.3993
     44 H8          1.3520   -6.5142    3.3847 H         1 <0>         0.1696
     45 H9         -0.4834   -7.7102    1.8239 H         1 <0>         0.1684
     46 H10        -0.7487   -6.2410   -0.3312 H         1 <0>         0.2208
     47 H11         5.9166    0.6633    4.8741 H         1 <0>         0.0917
     48 H12         7.0992   -0.6359    4.5717 H         1 <0>         0.0891
     49 H13         7.8591    1.7400    3.9245 H         1 <0>         0.0809
     50 H14         7.9935    0.5085    2.6424 H         1 <0>         0.0704
     51 H15         5.5639    2.3174    2.9818 H         1 <0>         0.0702
     52 H16         6.9301    2.7124    1.9147 H         1 <0>         0.0758
     53 H17         6.5563    0.6975    0.5965 H         1 <0>         0.0795
     54 H18         5.0094    1.5721    0.7341 H         1 <0>         0.0728
     55 H19         5.8503   -1.8576   -1.2920 H         1 <0>         0.1408
     56 H20         5.3644   -2.7019    0.1979 H         1 <0>         0.1405
     57 H21         6.1154   -4.2681   -1.6301 H         1 <0>         0.1312
     58 H22         4.4349   -4.5577   -1.1077 H         1 <0>         0.0817
     59 H23         3.2632   -2.6024   -4.2110 H         1 <0>         0.1323
     60 H24         2.5445   -3.4537   -2.8183 H         1 <0>         0.0845
     61 H25         2.5229   -1.0424   -2.3733 H         1 <0>         0.1441
     62 H26         4.2638   -0.9310   -2.7276 H         1 <0>         0.1410
     63 H27         6.7713   -5.1698   -2.8859 H         1 <0>         0.1222
     64 H28         8.0341   -6.0016   -4.8276 H         1 <0>         0.1281
     65 H29         7.3368   -5.3880   -7.1066 H         1 <0>         0.1264
     66 H30         5.3747   -3.9431   -7.4514 H         1 <0>         0.1281
     67 H31         4.0983   -3.1147   -5.5171 H         1 <0>         0.1225
     68 H32         3.0906   -2.5579   -0.5864 H         1 <0>         0.3989
@<TRIPOS>BOND
     1    1    6 ar
     2    1    2 ar
     3    1   38 1
     4    2    3 ar
     5    2   39 1
     6    3    4 ar
     7    3   40 1
     8    4    5 ar
     9    4    7 1
    10    5    6 ar
    11    5   41 1
    12    6   42 1
    13    7    8 1
    14    7    9 1
    15    7   26 1
    16    9   13 2
    17    9   10 1
    18   10   25 1
    19   10   11 2
    20   11   12 1
    21   11   22 1
    22   12   13 1
    23   13   14 1
    24   14   15 am
    25   14   43 1
    26   15   16 2
    27   15   17 1
    28   17   21 1
    29   17   18 2
    30   18   19 1
    31   18   44 1
    32   19   20 2
    33   19   45 1
    34   20   21 1
    35   20   46 1
    36   22   23 1
    37   22   47 1
    38   22   48 1
    39   23   24 1
    40   23   49 1
    41   23   50 1
    42   24   25 1
    43   24   51 1
    44   24   52 1
    45   25   53 1
    46   25   54 1
    47   26   31 1
    48   26   27 1
    49   26   68 1
    50   27   28 1
    51   27   55 1
    52   27   56 1
    53   28   29 1
    54   28   57 1
    55   28   58 1
    56   29   30 1
    57   29   32 1
    58   30   31 1
    59   30   59 1
    60   30   60 1
    61   31   61 1
    62   31   62 1
    63   32   37 ar
    64   32   33 ar
    65   33   34 ar
    66   33   63 1
    67   34   35 ar
    68   34   64 1
    69   35   36 ar
    70   35   65 1
    71   36   37 ar
    72   36   66 1
    73   37   67 1
@<TRIPOS>MOLECULE
ZINC41584984
   65    70     0     0     0
SMALL
USER_CHARGES

@<TRIPOS>ATOM
      1 C1         -0.0853    1.5091    0.0163 C.3       1 <0>        -0.1420
      2 C2         -0.0721    0.0022    0.0059 C.ar      1 <0>         0.0799
      3 C3         -0.0922   -0.6742   -1.1813 C.ar      1 <0>        -0.1818
      4 C4         -0.0801   -2.0661   -1.1933 C.ar      1 <0>         0.2128
      5 C5         -0.0476   -2.7810   -0.0066 C.ar      1 <0>        -0.2183
      6 C6         -0.0268   -2.1089    1.2089 C.ar      1 <0>         0.1769
      7 C7         -0.0335   -0.7045    1.2081 C.ar      1 <0>        -0.2664
      8 C8         -0.0001   -0.2880    2.6218 C.2       1 <0>         0.4151
      9 O1          0.0011    0.8471    3.0653 O.2       1 <0>        -0.3966
     10 C9          0.0311   -1.5503    3.3774 C.2       1 <0>        -0.0586
     11 C10         0.0677   -1.6756    4.7276 C.2       1 <0>         0.0149
     12 C11        -0.0197   -3.0063    5.3446 C.ar      1 <0>        -0.0891
     13 C12        -0.1170   -3.1318    6.7353 C.ar      1 <0>        -0.0672
     14 C13        -0.1990   -4.3832    7.3066 C.ar      1 <0>        -0.1109
     15 C14        -0.1848   -5.5155    6.5081 C.ar      1 <0>        -0.0127
     16 C15        -0.0887   -5.3994    5.1306 C.ar      1 <0>        -0.1175
     17 C16        -0.0118   -4.1547    4.5442 C.ar      1 <0>        -0.0868
     18 Cl1        -0.2874   -7.0877    7.2371 Cl        1 <0>        -0.0506
     19 O2          0.0048   -2.5640    2.4804 O.3       1 <0>        -0.2105
     20 C17        -0.0353   -4.2877   -0.0348 C.3       1 <0>         0.0515
     21 N1          1.3533   -4.7654   -0.0747 N.4       1 <0>        -0.3846
     22 C18         2.0350   -4.3928    1.1719 C.3       1 <0>        -0.0069
     23 C19         3.4869   -4.8738    1.1230 C.3       1 <0>         0.0298
     24 N2          3.5110   -6.3329    0.9484 N.3       1 <0>        -0.5324
     25 C20         2.8103   -6.7229   -0.2833 C.3       1 <0>         0.0200
     26 C21         1.3640   -6.2267   -0.2227 C.3       1 <0>        -0.0028
     27 C22         4.8893   -6.8410    0.9534 C.3       1 <0>         0.1034
     28 C23         4.8695   -8.3464    1.0199 C.ar      1 <0>        -0.0891
     29 C24         4.8698   -8.9826    2.2474 C.ar      1 <0>        -0.0806
     30 C25         4.8512  -10.3633    2.3136 C.ar      1 <0>        -0.0990
     31 C26         4.8327  -11.1131    1.1487 C.ar      1 <0>         0.0447
     32 C27         4.8325  -10.4722   -0.0877 C.ar      1 <0>         0.0343
     33 C28         4.8454   -9.0880   -0.1464 C.ar      1 <0>        -0.1006
     34 O3          4.8127  -11.4196   -1.0702 O.3       1 <0>        -0.3082
     35 C29         5.2130  -12.6457   -0.4300 C.3       1 <0>         0.2126
     36 O4          4.8130  -12.4621    0.9409 O.3       1 <0>        -0.3050
     37 O5         -0.1007   -2.7289   -2.3776 O.3       1 <0>        -0.4820
     38 H1          0.9387    1.8816   -0.0088 H         1 <0>         0.0951
     39 H2         -0.6261    1.8738   -0.8571 H         1 <0>         0.0870
     40 H3         -0.5782    1.8619    0.9222 H         1 <0>         0.0897
     41 H4         -0.1180   -0.1276   -2.1124 H         1 <0>         0.1572
     42 H5          0.1610   -0.7973    5.3491 H         1 <0>         0.1739
     43 H6         -0.1275   -2.2501    7.3590 H         1 <0>         0.1448
     44 H7         -0.2742   -4.4816    8.3795 H         1 <0>         0.1447
     45 H8         -0.0779   -6.2865    4.5147 H         1 <0>         0.1374
     46 H9          0.0586   -4.0655    3.4702 H         1 <0>         0.1424
     47 H10        -0.5261   -4.6719    0.8595 H         1 <0>         0.1395
     48 H11        -0.5659   -4.6389   -0.9197 H         1 <0>         0.1500
     49 H12         2.0149   -3.3091    1.2871 H         1 <0>         0.1280
     50 H13         1.5267   -4.8574    2.0168 H         1 <0>         0.1398
     51 H14         3.9993   -4.3989    0.2863 H         1 <0>         0.0613
     52 H15         3.9888   -4.6105    2.0540 H         1 <0>         0.1251
     53 H16         3.3116   -6.2785   -1.1431 H         1 <0>         0.0621
     54 H17         2.8186   -7.8087   -0.3782 H         1 <0>         0.1279
     55 H18         0.8591   -6.6819    0.6293 H         1 <0>         0.1399
     56 H19         0.8465   -6.5026   -1.1415 H         1 <0>         0.1388
     57 H20         5.3966   -6.5242    0.0421 H         1 <0>         0.0588
     58 H21         5.4191   -6.4459    1.8202 H         1 <0>         0.1019
     59 H22         4.8850   -8.3997    3.1564 H         1 <0>         0.1405
     60 H23         4.8515  -10.8576    3.2738 H         1 <0>         0.1406
     61 H24         4.8407   -8.5883   -1.1038 H         1 <0>         0.1311
     62 H25         4.6918  -13.4957   -0.8705 H         1 <0>         0.1378
     63 H26         6.2925  -12.7793   -0.4994 H         1 <0>         0.0905
     64 H27         0.7764   -2.9131   -2.7406 H         1 <0>         0.4032
     65 H28         1.8311   -4.3447   -0.8575 H         1 <0>         0.4150
@<TRIPOS>BOND
     1    1    2 1
     2    1   38 1
     3    1   39 1
     4    1   40 1
     5    2    7 ar
     6    2    3 ar
     7    3    4 ar
     8    3   41 1
     9    4    5 ar
    10    4   37 1
    11    5    6 ar
    12    5   20 1
    13    6   19 1
    14    6    7 ar
    15    7    8 1
    16    8    9 2
    17    8   10 1
    18   10   11 2
    19   10   19 1
    20   11   12 1
    21   11   42 1
    22   12   17 ar
    23   12   13 ar
    24   13   14 ar
    25   13   43 1
    26   14   15 ar
    27   14   44 1
    28   15   16 ar
    29   15   18 1
    30   16   17 ar
    31   16   45 1
    32   17   46 1
    33   20   21 1
    34   20   47 1
    35   20   48 1
    36   21   26 1
    37   21   22 1
    38   21   65 1
    39   22   23 1
    40   22   49 1
    41   22   50 1
    42   23   24 1
    43   23   51 1
    44   23   52 1
    45   24   25 1
    46   24   27 1
    47   25   26 1
    48   25   53 1
    49   25   54 1
    50   26   55 1
    51   26   56 1
    52   27   28 1
    53   27   57 1
    54   27   58 1
    55   28   33 ar
    56   28   29 ar
    57   29   30 ar
    58   29   59 1
    59   30   31 ar
    60   30   60 1
    61   31   36 1
    62   31   32 ar
    63   32   33 ar
    64   32   34 1
    65   33   61 1
    66   34   35 1
    67   35   36 1
    68   35   62 1
    69   35   63 1
    70   37   64 1
@<TRIPOS>MOLECULE
ZINC35397184
   59    62     0     0     0
SMALL
USER_CHARGES

@<TRIPOS>ATOM
      1 C1          1.2142    1.2346   -0.1709 C.3       1 <0>        -0.1189
      2 C2          0.5845   -0.1318   -0.0840 C.ar      1 <0>        -0.0647
      3 C3         -0.0195   -0.6861   -1.1978 C.ar      1 <0>        -0.1277
      4 C4         -0.5979   -1.9396   -1.1223 C.ar      1 <0>        -0.0988
      5 C5         -0.5743   -2.6424    0.0667 C.ar      1 <0>        -0.1308
      6 C6          0.0313   -2.0886    1.1867 C.ar      1 <0>         0.1407
      7 C7          0.6161   -0.8313    1.1062 C.ar      1 <0>        -0.1138
      8 C8          1.2795   -0.2290    2.3178 C.3       1 <0>        -0.1179
      9 N1          0.0566   -2.7976    2.3928 N.am      1 <0>        -0.6579
     10 C9         -0.0276   -4.1428    2.3855 C.2       1 <0>         0.5308
     11 O1         -0.0242   -4.7449    1.3327 O.2       1 <0>        -0.4963
     12 C10        -0.1258   -4.8986    3.6856 C.3       1 <0>        -0.1680
     13 S1         -0.2242   -6.6776    3.3448 S.3       1 <0>         0.1099
     14 C11        -0.3328   -7.4123    4.9427 C.2       1 <0>         0.1053
     15 N2         -0.3417   -6.7619    6.0694 N.2       1 <0>        -0.4744
     16 C12        -0.4444   -7.7546    7.1425 C.3       1 <0>         0.1641
     17 C13         0.7766   -7.6677    8.0587 C.3       1 <0>        -0.1084
     18 C14         0.6210   -8.6723    9.2031 C.3       1 <0>        -0.0008
     19 N3         -0.5977   -8.3679    9.9627 N.4       1 <0>        -0.3845
     20 C15        -1.7763   -8.5319    9.1034 C.3       1 <0>        -0.0010
     21 C16        -1.7186   -7.5218    7.9548 C.3       1 <0>        -0.1080
     22 C17        -0.6988   -9.2809   11.1091 C.3       1 <0>        -0.0462
     23 N4         -0.4942   -9.0678    6.4934 N.2       1 <0>        -0.4691
     24 C18        -0.4345   -8.8662    5.2106 C.2       1 <0>         0.2385
     25 C19        -0.4606   -9.9257    4.1771 C.ar      1 <0>        -0.0605
     26 C20        -0.0438  -11.2202    4.4903 C.ar      1 <0>        -0.0613
     27 C21        -0.0703  -12.2032    3.5232 C.ar      1 <0>        -0.0946
     28 C22        -0.5094  -11.9078    2.2436 C.ar      1 <0>        -0.0623
     29 C23        -0.9237  -10.6250    1.9269 C.ar      1 <0>        -0.0859
     30 C24        -0.9075   -9.6353    2.8874 C.ar      1 <0>        -0.0728
     31 Br1        -0.5426  -13.2612    0.9234 Br        1 <0>        -0.0254
     32 H1          2.2583    1.1353   -0.4676 H         1 <0>         0.0738
     33 H2          0.6819    1.8337   -0.9098 H         1 <0>         0.0707
     34 H3          1.1578    1.7232    0.8019 H         1 <0>         0.0694
     35 H4         -0.0396   -0.1385   -2.1285 H         1 <0>         0.1261
     36 H5         -1.0691   -2.3697   -1.9938 H         1 <0>         0.1284
     37 H6         -1.0266   -3.6213    0.1251 H         1 <0>         0.1441
     38 H7          0.5470    0.3448    2.8856 H         1 <0>         0.0723
     39 H8          1.6828   -1.0245    2.9445 H         1 <0>         0.0597
     40 H9          2.0887    0.4285    1.9998 H         1 <0>         0.0774
     41 H10         0.1347   -2.3211    3.2340 H         1 <0>         0.4130
     42 H11         0.7557   -4.6931    4.2928 H         1 <0>         0.1281
     43 H12        -1.0194   -4.5817    4.2234 H         1 <0>         0.1295
     44 H13         1.6763   -7.9010    7.4893 H         1 <0>         0.1137
     45 H14         0.8544   -6.6600    8.4669 H         1 <0>         0.1072
     46 H15         0.5517   -9.6804    8.7943 H         1 <0>         0.1382
     47 H16         1.4859   -8.6073    9.8633 H         1 <0>         0.1381
     48 H17        -1.7913   -9.5432    8.6970 H         1 <0>         0.1385
     49 H18        -2.6794   -8.3634    9.6900 H         1 <0>         0.1381
     50 H19        -1.7123   -6.5099    8.3599 H         1 <0>         0.1073
     51 H20        -2.5891   -7.6517    7.3117 H         1 <0>         0.1137
     52 H21         0.1721   -9.1544   11.7522 H         1 <0>         0.1256
     53 H22        -1.6034   -9.0559   11.6740 H         1 <0>         0.1256
     54 H23        -0.7401  -10.3098   10.7516 H         1 <0>         0.1234
     55 H24         0.2991  -11.4517    5.4879 H         1 <0>         0.1390
     56 H25         0.2524  -13.2053    3.7644 H         1 <0>         0.1444
     57 H26        -1.2648  -10.4003    0.9271 H         1 <0>         0.1484
     58 H27        -1.2355   -8.6363    2.6406 H         1 <0>         0.1433
     59 H28        -0.5558   -7.4166   10.2962 H         1 <0>         0.4238
@<TRIPOS>BOND
     1    1    2 1
     2    1   32 1
     3    1   33 1
     4    1   34 1
     5    2    7 ar
     6    2    3 ar
     7    3    4 ar
     8    3   35 1
     9    4    5 ar
    10    4   36 1
    11    5    6 ar
    12    5   37 1
    13    6    7 ar
    14    6    9 1
    15    7    8 1
    16    8   38 1
    17    8   39 1
    18    8   40 1
    19    9   10 am
    20    9   41 1
    21   10   11 2
    22   10   12 1
    23   12   13 1
    24   12   42 1
    25   12   43 1
    26   13   14 1
    27   14   24 1
    28   14   15 2
    29   15   16 1
    30   16   21 1
    31   16   17 1
    32   16   23 1
    33   17   18 1
    34   17   44 1
    35   17   45 1
    36   18   19 1
    37   18   46 1
    38   18   47 1
    39   19   20 1
    40   19   22 1
    41   19   59 1
    42   20   21 1
    43   20   48 1
    44   20   49 1
    45   21   50 1
    46   21   51 1
    47   22   52 1
    48   22   53 1
    49   22   54 1
    50   23   24 2
    51   24   25 1
    52   25   30 ar
    53   25   26 ar
    54   26   27 ar
    55   26   55 1
    56   27   28 ar
    57   27   56 1
    58   28   29 ar
    59   28   31 1
    60   29   30 ar
    61   29   57 1
    62   30   58 1
@<TRIPOS>MOLECULE
ZINC12038999
   65    69     0     0     0
SMALL
USER_CHARGES
methyl 9-[2-(2-fluorophenyl)ethoxy]-3-(1H-indol-2-ylmethyl)-7-oxo-1,2,4,5-tetrahydropyrido[1,2-d][1,4]diazepine-10-carboxylate
@<TRIPOS>ATOM
      1 C1         -1.5957    5.6561    1.1740 C.3       1 <0>         0.0312
      2 O1         -0.3788    4.8648    1.2113 O.3       1 <0>        -0.3515
      3 C2          0.0394    4.3303    0.0468 C.2       1 <0>         0.5241
      4 O2         -0.5957    4.5203   -0.9719 O.2       1 <0>        -0.4705
      5 C3          1.2650    3.5166    0.0089 C.2       1 <0>        -0.1926
      6 C4          1.1794    2.0559   -0.0264 C.2       1 <0>         0.2593
      7 C5          2.3607    1.3422   -0.0345 C.2       1 <0>        -0.3382
      8 C6          3.5710    2.0374   -0.0401 C.2       1 <0>         0.5400
      9 O3          4.6145    1.4047   -0.0330 O.2       1 <0>        -0.5225
     10 N1          3.6260    3.3898   -0.0474 N.am      1 <0>        -0.4989
     11 C7          2.5109    4.1287    0.0058 C.2       1 <0>         0.2101
     12 C8          2.5252    5.6362    0.0751 C.3       1 <0>        -0.1158
     13 C9          3.7537    6.2149   -0.6237 C.3       1 <0>        -0.0154
     14 C10         5.1655    5.0467    0.9492 C.3       1 <0>        -0.0228
     15 C11         4.9628    3.9865   -0.1345 C.3       1 <0>         0.0551
     16 C12         6.0130    6.9883   -0.2204 C.3       1 <0>         0.0696
     17 C13         6.9931    7.3348    0.8707 C.2       1 <0>        -0.0190
     18 C14         7.0866    8.5317    1.4711 C.2       1 <0>        -0.1170
     19 C15         8.1585    8.4300    2.4644 C.ar      1 <0>        -0.1251
     20 C16         8.7154    9.3193    3.3856 C.ar      1 <0>        -0.0601
     21 C17         9.7395    8.9082    4.1913 C.ar      1 <0>        -0.1360
     22 C18        10.2311    7.6129    4.1014 C.ar      1 <0>        -0.0709
     23 C19         9.6965    6.7195    3.1995 C.ar      1 <0>        -0.1366
     24 C20         8.6530    7.1166    2.3694 C.ar      1 <0>         0.1208
     25 N2          7.9235    6.4776    1.3920 N.pl3     1 <0>        -0.5935
     26 H1          8.0501    5.5567    1.1145 H         1 <0>         0.4160
     27 O4         -0.0182    1.4260   -0.0450 O.3       1 <0>        -0.2888
     28 C21         0.0006   -0.0025   -0.0792 C.3       1 <0>         0.0597
     29 C22        -1.4350   -0.5312   -0.0960 C.3       1 <0>        -0.0769
     30 C23        -1.4152   -2.0376   -0.1321 C.ar      1 <0>        -0.1280
     31 C24        -1.5127   -2.7015   -1.3404 C.ar      1 <0>        -0.0827
     32 C25        -1.4887   -4.0831   -1.3744 C.ar      1 <0>        -0.1257
     33 C26        -1.3787   -4.8028   -0.1989 C.ar      1 <0>        -0.0839
     34 C27        -1.2868   -4.1413    1.0108 C.ar      1 <0>        -0.1505
     35 C28        -1.3050   -2.7571    1.0455 C.ar      1 <0>         0.1041
     36 F1         -1.2156   -2.1093    2.2277 F         1 <0>        -0.1363
     37 H2         -1.8192    6.0262    2.1746 H         1 <0>         0.1105
     38 H3         -1.4603    6.4992    0.4966 H         1 <0>         0.0683
     39 H4         -2.4211    5.0368    0.8229 H         1 <0>         0.0717
     40 H5          2.3487    0.2623   -0.0403 H         1 <0>         0.1697
     41 H6          1.6265    6.0237   -0.4048 H         1 <0>         0.1409
     42 H7          2.5323    5.9450    1.1204 H         1 <0>         0.1284
     43 H8          4.0736    5.5434   -1.4204 H         1 <0>         0.1461
     44 H9          3.5124    7.1925   -1.0411 H         1 <0>         0.1596
     45 H10         6.2053    5.0460    1.2762 H         1 <0>         0.1443
     46 H11         4.5115    4.8385    1.7960 H         1 <0>         0.1434
     47 H12         5.0847    4.4488   -1.1141 H         1 <0>         0.1114
     48 H13         5.7120    3.2041   -0.0138 H         1 <0>         0.1584
     49 H14         6.4815    6.3011   -0.9249 H         1 <0>         0.1404
     50 H15         5.7150    7.8972   -0.7431 H         1 <0>         0.1589
     51 H16         6.4843    9.4037    1.2628 H         1 <0>         0.1593
     52 H17         8.3383   10.3285    3.4609 H         1 <0>         0.1307
     53 H18        10.1697    9.5962    4.9039 H         1 <0>         0.1332
     54 H19        11.0410    7.3027    4.7450 H         1 <0>         0.1359
     55 H20        10.0859    5.7141    3.1371 H         1 <0>         0.1277
     56 H21         0.5217   -0.3376   -0.9760 H         1 <0>         0.0814
     57 H22         0.5167   -0.3803    0.8034 H         1 <0>         0.0791
     58 H23        -1.9561   -0.1960    0.8008 H         1 <0>         0.0913
     59 H24        -1.9511   -0.1533   -0.9786 H         1 <0>         0.0949
     60 H25        -1.6032   -2.1405   -2.2588 H         1 <0>         0.1353
     61 H26        -1.5605   -4.6010   -2.3194 H         1 <0>         0.1347
     62 H27        -1.3649   -5.8824   -0.2262 H         1 <0>         0.1373
     63 H28        -1.2012   -4.7037    1.9288 H         1 <0>         0.1395
     64 N3          4.8177    6.3663    0.3894 N.4       1 <0>        -0.4010
     65 H29         4.4760    6.9710    1.1456 H         1 <0>         0.4382
@<TRIPOS>BOND
     1    1    2 1
     2    1   37 1
     3    1   38 1
     4    1   39 1
     5    2    3 1
     6    3    4 2
     7    3    5 1
     8    5   11 2
     9    5    6 1
    10    6    7 2
    11    6   27 1
    12    7    8 1
    13    7   40 1
    14    8    9 2
    15    8   10 am
    16   10   15 1
    17   10   11 1
    18   11   12 1
    19   12   13 1
    20   12   41 1
    21   12   42 1
    22   13   43 1
    23   13   44 1
    24   13   64 1
    25   14   15 1
    26   14   45 1
    27   14   46 1
    28   14   64 1
    29   15   47 1
    30   15   48 1
    31   16   17 1
    32   16   49 1
    33   16   50 1
    34   16   64 1
    35   17   25 1
    36   17   18 2
    37   18   19 1
    38   18   51 1
    39   19   24 ar
    40   19   20 ar
    41   20   21 ar
    42   20   52 1
    43   21   22 ar
    44   21   53 1
    45   22   23 ar
    46   22   54 1
    47   23   24 ar
    48   23   55 1
    49   24   25 1
    50   25   26 1
    51   27   28 1
    52   28   29 1
    53   28   56 1
    54   28   57 1
    55   29   30 1
    56   29   58 1
    57   29   59 1
    58   30   35 ar
    59   30   31 ar
    60   31   32 ar
    61   31   60 1
    62   32   33 ar
    63   32   61 1
    64   33   34 ar
    65   33   62 1
    66   34   35 ar
    67   34   63 1
    68   35   36 1
    69   64   65 1
@<TRIPOS>MOLECULE
ZINC35037391
   64    67     0     0     0
SMALL
USER_CHARGES

@<TRIPOS>ATOM
      1 C1         -0.8889    0.6865    0.1193 C.3       1 <0>        -0.1619
      2 C2         -0.3001   -0.7254    0.0963 C.3       1 <0>         0.1967
      3 H1          0.1699   -0.9074   -0.8702 H         1 <0>         0.1414
      4 C3          0.7298   -0.8580    1.1885 C.2       1 <0>         0.3894
      5 N1          0.3794   -0.5671    2.4045 N.2       1 <0>        -0.5182
      6 C4          1.2521   -0.6632    3.4384 C.ar      1 <0>         0.1406
      7 C5          0.8755   -0.3509    4.7463 C.ar      1 <0>        -0.1114
      8 C6          1.7940   -0.4631    5.7656 C.ar      1 <0>        -0.0685
      9 C7          3.0928   -0.8836    5.5101 C.ar      1 <0>        -0.1260
     10 C8          3.4884   -1.1970    4.2284 C.ar      1 <0>        -0.0365
     11 C9          2.5740   -1.0907    3.1822 C.ar      1 <0>        -0.1860
     12 C10         2.9391   -1.4124    1.7950 C.2       1 <0>         0.5457
     13 O1          4.0612   -1.7862    1.5070 O.2       1 <0>        -0.4774
     14 N2          1.9778   -1.2818    0.8513 N.am      1 <0>        -0.4908
     15 C11         2.2720   -1.5804   -0.4855 C.ar      1 <0>         0.0890
     16 C12         2.6313   -0.5651   -1.3620 C.ar      1 <0>        -0.0910
     17 C13         2.9208   -0.8620   -2.6793 C.ar      1 <0>        -0.0969
     18 C14         2.8527   -2.1700   -3.1261 C.ar      1 <0>        -0.0107
     19 C15         2.4944   -3.1836   -2.2546 C.ar      1 <0>        -0.0875
     20 C16         2.2103   -2.8928   -0.9348 C.ar      1 <0>        -0.0680
     21 Cl1         3.2167   -2.5399   -4.7827 Cl        1 <0>        -0.0476
     22 N3         -1.3690   -1.7039    0.3115 N.am      1 <0>        -0.6066
     23 C17        -2.1563   -1.6688    1.5465 C.3       1 <0>         0.0662
     24 C18        -3.3740   -0.7637    1.3494 C.3       1 <0>        -0.0421
     25 N4         -4.1635   -0.7286    2.5877 N.4       1 <0>        -0.3829
     26 C19        -5.2650    0.2320    2.4391 C.3       1 <0>        -0.0472
     27 C20        -4.7118   -2.0646    2.8569 C.3       1 <0>        -0.0584
     28 C21        -1.6280   -2.6363   -0.6266 C.2       1 <0>         0.7032
     29 O2         -0.9745   -2.6653   -1.6515 O.2       1 <0>        -0.5314
     30 N5         -2.6113   -3.5364   -0.4286 N.am      1 <0>        -0.6805
     31 C22        -2.9338   -4.4532   -1.4355 C.ar      1 <0>         0.1439
     32 C23        -4.2521   -4.8486   -1.6202 C.ar      1 <0>        -0.1443
     33 C24        -4.5673   -5.7532   -2.6152 C.ar      1 <0>        -0.0996
     34 C25        -3.5717   -6.2651   -3.4269 C.ar      1 <0>        -0.1239
     35 C26        -2.2579   -5.8737   -3.2452 C.ar      1 <0>        -0.0974
     36 C27        -1.9371   -4.9651   -2.2557 C.ar      1 <0>        -0.1140
     37 H2         -0.1103    1.4089   -0.1257 H         1 <0>         0.0857
     38 H3         -1.6932    0.7567   -0.6130 H         1 <0>         0.0800
     39 H4         -1.2827    0.8998    1.1130 H         1 <0>         0.0749
     40 H5         -0.1315   -0.0225    4.9571 H         1 <0>         0.1364
     41 H6          1.5010   -0.2207    6.7765 H         1 <0>         0.1392
     42 H7          3.7988   -0.9652    6.3233 H         1 <0>         0.1404
     43 H8          4.4997   -1.5235    4.0357 H         1 <0>         0.1429
     44 H9          2.6840    0.4559   -1.0140 H         1 <0>         0.1377
     45 H10         3.2003   -0.0727   -3.3614 H         1 <0>         0.1476
     46 H11         2.4415   -4.2036   -2.6058 H         1 <0>         0.1444
     47 H12         1.9354   -3.6848   -0.2539 H         1 <0>         0.1297
     48 H13        -2.4891   -2.6769    1.7939 H         1 <0>         0.0914
     49 H14        -1.5418   -1.2796    2.3582 H         1 <0>         0.1388
     50 H15        -3.0412    0.2443    1.1020 H         1 <0>         0.1437
     51 H16        -3.9885   -1.1530    0.5377 H         1 <0>         0.1309
     52 H17        -5.9033   -0.0727    1.6098 H         1 <0>         0.1227
     53 H18        -5.8508    0.2580    3.3579 H         1 <0>         0.1279
     54 H19        -4.8582    1.2233    2.2394 H         1 <0>         0.1254
     55 H20        -5.3502   -2.3692    2.0276 H         1 <0>         0.1244
     56 H21        -3.8945   -2.7773    2.9672 H         1 <0>         0.1217
     57 H22        -5.2976   -2.0385    3.7758 H         1 <0>         0.1311
     58 H23        -3.0955   -3.5488    0.4119 H         1 <0>         0.3972
     59 H24        -5.0301   -4.4494   -0.9863 H         1 <0>         0.1197
     60 H25        -5.5923   -6.0614   -2.7591 H         1 <0>         0.1293
     61 H26        -3.8206   -6.9724   -4.2042 H         1 <0>         0.1280
     62 H27        -1.4825   -6.2756   -3.8805 H         1 <0>         0.1296
     63 H28        -0.9115   -4.6562   -2.1174 H         1 <0>         0.1396
     64 H29        -3.5726   -0.4466    3.3555 H         1 <0>         0.4304
@<TRIPOS>BOND
     1    1    2 1
     2    1   37 1
     3    1   38 1
     4    1   39 1
     5    2    3 1
     6    2    4 1
     7    2   22 1
     8    4   14 1
     9    4    5 2
    10    5    6 1
    11    6   11 ar
    12    6    7 ar
    13    7    8 ar
    14    7   40 1
    15    8    9 ar
    16    8   41 1
    17    9   10 ar
    18    9   42 1
    19   10   11 ar
    20   10   43 1
    21   11   12 1
    22   12   13 2
    23   12   14 am
    24   14   15 1
    25   15   20 ar
    26   15   16 ar
    27   16   17 ar
    28   16   44 1
    29   17   18 ar
    30   17   45 1
    31   18   19 ar
    32   18   21 1
    33   19   20 ar
    34   19   46 1
    35   20   47 1
    36   22   23 1
    37   22   28 am
    38   23   24 1
    39   23   48 1
    40   23   49 1
    41   24   25 1
    42   24   50 1
    43   24   51 1
    44   25   26 1
    45   25   27 1
    46   25   64 1
    47   26   52 1
    48   26   53 1
    49   26   54 1
    50   27   55 1
    51   27   56 1
    52   27   57 1
    53   28   29 2
    54   28   30 am
    55   30   31 1
    56   30   58 1
    57   31   36 ar
    58   31   32 ar
    59   32   33 ar
    60   32   59 1
    61   33   34 ar
    62   33   60 1
    63   34   35 ar
    64   34   61 1
    65   35   36 ar
    66   35   62 1
    67   36   63 1
@<TRIPOS>MOLECULE
ZINC04788241
   78    82     0     0     0
SMALL
USER_CHARGES

@<TRIPOS>ATOM
      1 C1         -0.3431    1.9566    0.0961 C.3       1 <0>        -0.1436
      2 C2         -0.4135    0.4602   -0.0680 C.ar      1 <0>         0.0950
      3 C3         -0.5497   -0.1017   -1.3018 C.ar      1 <0>        -0.2259
      4 C4         -0.6125   -1.4963   -1.4307 C.ar      1 <0>         0.4976
      5 N1         -0.5434   -2.2892   -0.3815 N.ar      1 <0>        -0.5282
      6 C5         -0.4095   -1.7953    0.8551 C.ar      1 <0>         0.1486
      7 C6         -0.3343   -0.3945    1.0506 C.ar      1 <0>        -0.0919
      8 C7         -0.1888    0.1190    2.3481 C.ar      1 <0>        -0.0938
      9 C8         -0.1154   -0.7479    3.4164 C.ar      1 <0>         0.1654
     10 C9         -0.1848   -2.1308    3.2160 C.ar      1 <0>        -0.0405
     11 C10        -0.3372   -2.6503    1.9686 C.ar      1 <0>        -0.1250
     12 N2          0.0302   -0.2409    4.7130 N.am      1 <0>        -0.6777
     13 C11         0.7637   -0.9141    5.6214 C.2       1 <0>         0.5214
     14 O1          1.3789   -1.9054    5.2898 O.2       1 <0>        -0.5136
     15 C12         0.8197   -0.4351    7.0491 C.3       1 <0>        -0.1253
     16 C13         1.7143   -1.3697    7.8659 C.3       1 <0>        -0.1262
     17 C14         1.7702   -0.8907    9.2937 C.2       1 <0>         0.5155
     18 O2          1.1551    0.1005    9.6253 O.2       1 <0>        -0.5421
     19 N3          2.5038   -1.5639   10.2021 N.am      1 <0>        -0.6051
     20 C15         3.2591   -2.7631    9.8132 C.3       1 <0>         0.0872
     21 C16         4.7293   -2.5637   10.2017 C.3       1 <0>         0.1310
     22 N4          4.7886   -2.1114   11.5988 N.pl3     1 <0>        -0.6731
     23 C17         4.0333   -0.9122   11.9877 C.3       1 <0>         0.1320
     24 C18         2.5676   -1.1084   11.5979 C.3       1 <0>         0.0941
     25 C19         5.5498   -2.8099   12.5413 C.ar      1 <0>         0.1313
     26 C20         6.8791   -2.4695   12.7525 C.ar      1 <0>        -0.0960
     27 C21         7.6284   -3.1611   13.6846 C.ar      1 <0>        -0.1231
     28 C22         7.0569   -4.1920   14.4073 C.ar      1 <0>        -0.0908
     29 C23         5.7333   -4.5352   14.2004 C.ar      1 <0>        -0.1504
     30 C24         4.9754   -3.8435   13.2735 C.ar      1 <0>         0.0900
     31 F1          3.6807   -4.1747   13.0755 F         1 <0>        -0.1356
     32 N5         -0.7513   -2.0543   -2.6936 N.pl3     1 <0>        -0.5721
     33 C25        -0.9471   -1.1994   -3.8724 C.3       1 <0>         0.1076
     34 C26         0.1114   -1.5555   -4.9210 C.3       1 <0>        -0.1099
     35 H1          1.1006   -1.3011   -4.5404 H         1 <0>         0.0861
     36 C27         0.0476   -3.0560   -5.2152 C.3       1 <0>        -0.1180
     37 C28         0.3505   -3.8415   -3.9372 C.3       1 <0>        -0.1077
     38 H2          0.3280   -4.9097   -4.1527 H         1 <0>         0.1023
     39 C29        -0.6992   -3.5110   -2.8782 C.3       1 <0>         0.0971
     40 C30         1.7362   -3.4547   -3.4164 C.3       1 <0>        -0.1569
     41 C31        -0.1587   -0.7705   -6.2062 C.3       1 <0>        -0.1511
     42 H3          0.6959    2.2803    0.0350 H         1 <0>         0.1079
     43 H4         -0.9203    2.4364   -0.6943 H         1 <0>         0.0971
     44 H5         -0.7540    2.2354    1.0664 H         1 <0>         0.0939
     45 H6         -0.6094    0.5260   -2.1786 H         1 <0>         0.1790
     46 H7         -0.1344    1.1857    2.5083 H         1 <0>         0.1585
     47 H8         -0.1252   -2.7951    4.0655 H         1 <0>         0.1600
     48 H9         -0.3896   -3.7203    1.8320 H         1 <0>         0.1538
     49 H10        -0.3969    0.5949    4.9577 H         1 <0>         0.4229
     50 H11         1.2277    0.5752    7.0777 H         1 <0>         0.1116
     51 H12        -0.1852   -0.4332    7.4714 H         1 <0>         0.1128
     52 H13         1.3063   -2.3800    7.8374 H         1 <0>         0.1032
     53 H14         2.7192   -1.3716    7.4437 H         1 <0>         0.1036
     54 H15         2.8579   -3.6328   10.3335 H         1 <0>         0.0770
     55 H16         3.1822   -2.9105    8.7359 H         1 <0>         0.0931
     56 H17         5.2659   -3.5070   10.0995 H         1 <0>         0.0836
     57 H18         5.1800   -1.8115    9.5542 H         1 <0>         0.0598
     58 H19         4.1102   -0.7648   13.0649 H         1 <0>         0.0838
     59 H20         4.4345   -0.0425   11.4674 H         1 <0>         0.0596
     60 H21         2.0341   -0.1633   11.6990 H         1 <0>         0.1006
     61 H22         2.1161   -1.8576   12.2482 H         1 <0>         0.0728
     62 H23         7.3271   -1.6650   12.1882 H         1 <0>         0.1315
     63 H24         8.6625   -2.8962   13.8488 H         1 <0>         0.1317
     64 H25         7.6456   -4.7308   15.1350 H         1 <0>         0.1345
     65 H26         5.2901   -5.3412   14.7663 H         1 <0>         0.1362
     66 H27        -1.9417   -1.3683   -4.2851 H         1 <0>         0.0987
     67 H28        -0.8407   -0.1530   -3.5866 H         1 <0>         0.1023
     68 H29        -0.9493   -3.3140   -5.5724 H         1 <0>         0.0747
     69 H30         0.7832   -3.3078   -5.9792 H         1 <0>         0.0825
     70 H31        -0.4293   -3.9892   -1.9366 H         1 <0>         0.0792
     71 H32        -1.6731   -3.8726   -3.2081 H         1 <0>         0.1029
     72 H33         1.7579   -2.3867   -3.1999 H         1 <0>         0.0560
     73 H34         1.9515   -4.0144   -2.5062 H         1 <0>         0.0554
     74 H35         2.4864   -3.6876   -4.1721 H         1 <0>         0.0715
     75 H36        -0.1157    0.2980   -5.9952 H         1 <0>         0.0632
     76 H37         0.5946   -1.0242   -6.9520 H         1 <0>         0.0699
     77 H38        -1.1475   -1.0261   -6.5871 H         1 <0>         0.0633
     78 H39        -0.5908   -3.2498   -0.5074 H         1 <0>         0.4333
@<TRIPOS>BOND
     1    1    2 1
     2    1   42 1
     3    1   43 1
     4    1   44 1
     5    2    7 ar
     6    2    3 ar
     7    3    4 ar
     8    3   45 1
     9    4    5 ar
    10    4   32 1
    11    5    6 ar
    12    5   78 1
    13    6   11 ar
    14    6    7 ar
    15    7    8 ar
    16    8    9 ar
    17    8   46 1
    18    9   10 ar
    19    9   12 1
    20   10   11 ar
    21   10   47 1
    22   11   48 1
    23   12   13 am
    24   12   49 1
    25   13   14 2
    26   13   15 1
    27   15   16 1
    28   15   50 1
    29   15   51 1
    30   16   17 1
    31   16   52 1
    32   16   53 1
    33   17   18 2
    34   17   19 am
    35   19   24 1
    36   19   20 1
    37   20   21 1
    38   20   54 1
    39   20   55 1
    40   21   22 1
    41   21   56 1
    42   21   57 1
    43   22   23 1
    44   22   25 1
    45   23   24 1
    46   23   58 1
    47   23   59 1
    48   24   60 1
    49   24   61 1
    50   25   30 ar
    51   25   26 ar
    52   26   27 ar
    53   26   62 1
    54   27   28 ar
    55   27   63 1
    56   28   29 ar
    57   28   64 1
    58   29   30 ar
    59   29   65 1
    60   30   31 1
    61   32   39 1
    62   32   33 1
    63   33   34 1
    64   33   66 1
    65   33   67 1
    66   34   35 1
    67   34   36 1
    68   34   41 1
    69   36   37 1
    70   36   68 1
    71   36   69 1
    72   37   38 1
    73   37   39 1
    74   37   40 1
    75   39   70 1
    76   39   71 1
    77   40   72 1
    78   40   73 1
    79   40   74 1
    80   41   75 1
    81   41   76 1
    82   41   77 1
@<TRIPOS>MOLECULE
ZINC63375223
   66    71     0     0     0
SMALL
USER_CHARGES

@<TRIPOS>ATOM
      1 C1         -0.0187    1.5258    0.0104 C.3       1 <0>        -0.1539
      2 C2          0.0021   -0.0041    0.0020 C.3       1 <0>        -0.1349
      3 C3          0.7421   -0.5109    1.2415 C.3       1 <0>         0.1454
      4 H1          1.7350   -0.0630    1.2804 H         1 <0>         0.0877
      5 C4          0.8719   -2.0337    1.1708 C.3       1 <0>        -0.1672
      6 N1         -0.0083   -0.1401    2.4439 N.am      1 <0>        -0.7139
      7 C5          0.6303   -0.0111    3.6237 C.2       1 <0>         0.5721
      8 O1          1.8292   -0.2024    3.6902 O.2       1 <0>        -0.5477
      9 C6         -0.1255    0.3624    4.8349 C.ar      1 <0>        -0.1213
     10 C7         -1.5037    0.5776    4.7642 C.ar      1 <0>        -0.0785
     11 C8         -2.2041    0.9257    5.8990 C.ar      1 <0>        -0.1027
     12 C9         -1.5475    1.0642    7.1110 C.ar      1 <0>        -0.0775
     13 C10        -0.1855    0.8546    7.1955 C.ar      1 <0>        -0.1028
     14 C11         0.5347    0.4978    6.0643 C.ar      1 <0>         0.1760
     15 N2          1.9115    0.2801    6.1489 N.am      1 <0>        -0.5155
     16 C12         2.8424    1.2424    5.9824 C.2       1 <0>         0.5424
     17 O2          2.6498    2.4084    5.7123 O.2       1 <0>        -0.4403
     18 C13         4.1769    0.5639    6.2038 C.3       1 <0>         0.0878
     19 H2          4.6862    0.9597    7.0825 H         1 <0>         0.1494
     20 C14         5.0470    0.6974    4.9419 C.3       1 <0>        -0.0855
     21 C15         6.0288   -0.4499    4.9752 C.2       1 <0>         0.0631
     22 C16         6.9016   -0.8704    4.0659 C.ar      1 <0>        -0.1562
     23 C17         7.2872   -0.3246    2.7546 C.ar      1 <0>         0.0024
     24 C18         8.2209   -1.0302    2.0632 C.ar      1 <0>        -0.1588
     25 C19         8.8019   -2.2096    2.5396 C.ar      1 <0>         0.0575
     26 C20         8.5115   -2.7792    3.7363 C.ar      1 <0>        -0.2074
     27 C21         7.5471   -2.1253    4.5572 C.ar      1 <0>         0.3464
     28 N3          7.0995   -2.4341    5.7379 N.pl3     1 <0>        -0.5675
     29 C22         6.1610   -1.3936    6.1641 C.3       1 <0>         0.0871
     30 H3          6.5477   -0.8626    7.0339 H         1 <0>         0.1860
     31 C23         4.7664   -1.9718    6.4384 C.3       1 <0>         0.2461
     32 H4          4.7377   -2.4153    7.4336 H         1 <0>         0.1250
     33 N4          3.8085   -0.8557    6.3825 N.am      1 <0>        -0.6290
     34 C24         2.4708   -0.9091    6.4111 C.2       1 <0>         0.7302
     35 O3          1.8371   -1.9197    6.6439 O.2       1 <0>        -0.5055
     36 C25         4.4303   -3.0137    5.4028 C.ar      1 <0>        -0.1416
     37 C26         3.9860   -2.6271    4.1522 C.ar      1 <0>        -0.0845
     38 C27         3.6777   -3.5828    3.2022 C.ar      1 <0>        -0.1126
     39 C28         3.8140   -4.9252    3.5028 C.ar      1 <0>        -0.0963
     40 C29         4.2591   -5.3118    4.7531 C.ar      1 <0>        -0.1146
     41 C30         4.5716   -4.3560    5.7016 C.ar      1 <0>        -0.0979
     42 H5          1.0039    1.9031    0.0027 H         1 <0>         0.0549
     43 H6         -0.5459    1.8868   -0.8726 H         1 <0>         0.0611
     44 H7         -0.5289    1.8773    0.9072 H         1 <0>         0.0541
     45 H8         -1.0205   -0.3814    0.0098 H         1 <0>         0.0707
     46 H9          0.5123   -0.3556   -0.8948 H         1 <0>         0.0820
     47 H10        -0.1210   -2.4817    1.1320 H         1 <0>         0.0600
     48 H11         1.4302   -2.3096    0.2763 H         1 <0>         0.0674
     49 H12         1.3991   -2.3948    2.0539 H         1 <0>         0.0598
     50 H13        -0.9647    0.0126    2.3909 H         1 <0>         0.4017
     51 H14        -2.0199    0.4715    3.8215 H         1 <0>         0.1363
     52 H15        -3.2698    1.0918    5.8431 H         1 <0>         0.1428
     53 H16        -2.1043    1.3380    7.9950 H         1 <0>         0.1437
     54 H17         0.3193    0.9644    8.1439 H         1 <0>         0.1366
     55 H18         4.4242    0.6305    4.0498 H         1 <0>         0.1388
     56 H19         5.5816    1.6472    4.9554 H         1 <0>         0.1504
     57 H20         6.8531    0.5839    2.3640 H         1 <0>         0.1697
     58 H21         8.5302   -0.6608    1.0966 H         1 <0>         0.1552
     59 H22         9.5310   -2.7006    1.9121 H         1 <0>         0.1578
     60 H23         8.9921   -3.6926    4.0543 H         1 <0>         0.1690
     61 H24         3.8795   -1.5783    3.9174 H         1 <0>         0.1276
     62 H25         3.3299   -3.2807    2.2254 H         1 <0>         0.1264
     63 H26         3.5724   -5.6719    2.7608 H         1 <0>         0.1290
     64 H27         4.3653   -6.3606    4.9880 H         1 <0>         0.1313
     65 H28         4.9229   -4.6579    6.6772 H         1 <0>         0.1259
     66 H29         7.3449   -3.2207    6.2496 H         1 <0>         0.4567
@<TRIPOS>BOND
     1    1    2 1
     2    1   42 1
     3    1   43 1
     4    1   44 1
     5    2    3 1
     6    2   45 1
     7    2   46 1
     8    3    4 1
     9    3    5 1
    10    3    6 1
    11    5   47 1
    12    5   48 1
    13    5   49 1
    14    6    7 am
    15    6   50 1
    16    7    8 2
    17    7    9 1
    18    9   14 ar
    19    9   10 ar
    20   10   11 ar
    21   10   51 1
    22   11   12 ar
    23   11   52 1
    24   12   13 ar
    25   12   53 1
    26   13   14 ar
    27   13   54 1
    28   14   15 1
    29   15   34 am
    30   15   16 am
    31   16   17 2
    32   16   18 1
    33   18   19 1
    34   18   33 1
    35   18   20 1
    36   20   21 1
    37   20   55 1
    38   20   56 1
    39   21   29 1
    40   21   22 2
    41   22   27 ar
    42   22   23 ar
    43   23   24 ar
    44   23   57 1
    45   24   25 ar
    46   24   58 1
    47   25   26 ar
    48   25   59 1
    49   26   27 ar
    50   26   60 1
    51   27   28 2
    52   28   29 1
    53   28   66 1
    54   29   30 1
    55   29   31 1
    56   31   32 1
    57   31   33 1
    58   31   36 1
    59   33   34 am
    60   34   35 2
    61   36   41 ar
    62   36   37 ar
    63   37   38 ar
    64   37   61 1
    65   38   39 ar
    66   38   62 1
    67   39   40 ar
    68   39   63 1
    69   40   41 ar
    70   40   64 1
    71   41   65 1
@<TRIPOS>MOLECULE
ZINC37442804
   78    82     0     0     0
SMALL
USER_CHARGES

@<TRIPOS>ATOM
      1 C1         -0.0187    1.5258    0.0104 C.3       1 <0>        -0.1703
      2 C2          0.0021   -0.0041    0.0020 C.3       1 <0>        -0.1115
      3 H1         -1.0203   -0.3820    0.0097 H         1 <0>         0.1186
      4 C3          0.7207   -0.4988   -1.2566 C.3       1 <0>        -0.1288
      5 C4          2.1771   -0.0271   -1.2196 C.3       1 <0>        -0.1125
      6 H2          2.2075    1.0623   -1.2390 H         1 <0>         0.0950
      7 C5          2.8393   -0.5340    0.0633 C.3       1 <0>        -0.0052
      8 N1          2.1225   -0.0054    1.2301 N.4       1 <0>        -0.3830
      9 C6          0.7439   -0.5118    1.2403 C.3       1 <0>        -0.0091
     10 C7          2.8077   -0.4308    2.4579 C.3       1 <0>        -0.0063
     11 C8          2.1361    0.2207    3.6685 C.3       1 <0>        -0.1735
     12 C9          2.8497   -0.2223    4.9473 C.3       1 <0>         0.1102
     13 N2          2.2067    0.4015    6.1065 N.am      1 <0>        -0.6126
     14 C10         2.6502    1.6077    6.5321 C.2       1 <0>         0.5978
     15 O1          3.4168    2.2811    5.8682 O.2       1 <0>        -0.4940
     16 C11         2.1551    2.0592    7.8385 C.2       1 <0>        -0.0423
     17 C12         2.2662    3.2675    8.4601 C.2       1 <0>        -0.0266
     18 C13         1.6030    3.1645    9.6769 C.2       1 <0>        -0.2091
     19 C14         1.0760    1.8714    9.8164 C.2       1 <0>         0.0845
     20 N3          1.4395    1.1987    8.6640 N.pl3     1 <0>        -0.4366
     21 C15         1.1753   -0.1928    8.2892 C.3       1 <0>         0.1044
     22 C16         1.1052   -0.2934    6.7620 C.3       1 <0>         0.1476
     23 C17         1.1440   -1.7696    6.3617 C.3       1 <0>        -0.1478
     24 C18        -0.1960    0.3020    6.2894 C.2       1 <0>         0.5046
     25 O2         -1.1708   -0.4056    6.1481 O.2       1 <0>        -0.5189
     26 N4         -0.2765    1.6209    6.0237 N.am      1 <0>        -0.7135
     27 C19        -1.5414    2.1997    5.5643 C.3       1 <0>         0.1428
     28 C20        -1.6558    2.0365    4.0473 C.3       1 <0>        -0.1213
     29 C21        -2.9768    2.6410    3.5674 C.3       1 <0>        -0.1125
     30 C22        -3.0168    4.1282    3.9248 C.3       1 <0>        -0.0923
     31 C23        -2.9024    4.2914    5.4418 C.3       1 <0>        -0.1124
     32 C24        -1.5814    3.6868    5.9217 C.3       1 <0>        -0.1264
     33 C25        -4.3378    4.7327    3.4450 C.3       1 <0>        -0.1511
     34 C26         0.3729    1.6284   11.0052 C.2       1 <0>        -0.1582
     35 C27         0.2403    2.6043   11.9275 C.2       1 <0>        -0.1267
     36 S1          1.1129    3.9698   11.1798 S.3       1 <0>         0.1065
     37 C28         2.9244   -0.5807   -2.4345 C.3       1 <0>        -0.1511
     38 H3          1.0039    1.9031    0.0027 H         1 <0>         0.0508
     39 H4         -0.5459    1.8868   -0.8726 H         1 <0>         0.0853
     40 H5         -0.5289    1.8773    0.9072 H         1 <0>         0.0724
     41 H6          0.6910   -1.5879   -1.2889 H         1 <0>         0.0832
     42 H7          0.2285   -0.0932   -2.1405 H         1 <0>         0.0950
     43 H8          2.8087   -1.6234    0.0815 H         1 <0>         0.1298
     44 H9          3.8765   -0.2001    0.0927 H         1 <0>         0.1310
     45 H10         0.2341   -0.1616    2.1378 H         1 <0>         0.1284
     46 H11         0.7579   -1.6017    1.2334 H         1 <0>         0.1304
     47 H12         2.7488   -1.5153    2.5497 H         1 <0>         0.1327
     48 H13         3.8533   -0.1260    2.4147 H         1 <0>         0.1364
     49 H14         2.1950    1.3052    3.5767 H         1 <0>         0.0961
     50 H15         1.0905   -0.0841    3.7117 H         1 <0>         0.0880
     51 H16         2.7909   -1.3069    5.0391 H         1 <0>         0.1035
     52 H17         3.8953    0.0825    4.9041 H         1 <0>         0.1019
     53 H18         2.7746    4.1407    8.0786 H         1 <0>         0.1629
     54 H19         1.9771   -0.8295    8.6630 H         1 <0>         0.1085
     55 H20         0.2252   -0.5115    8.7179 H         1 <0>         0.1167
     56 H21         2.0931   -2.2057    6.6734 H         1 <0>         0.0845
     57 H22         0.3241   -2.2993    6.8466 H         1 <0>         0.0981
     58 H23         1.0427   -1.8554    5.2798 H         1 <0>         0.0760
     59 H24         0.5031    2.1868    6.1368 H         1 <0>         0.3976
     60 H25        -2.3726    1.6872    6.0485 H         1 <0>         0.0918
     61 H26        -0.8245    2.5490    3.5630 H         1 <0>         0.0580
     62 H27        -1.6273    0.9770    3.7927 H         1 <0>         0.0610
     63 H28        -3.0583    2.5247    2.4867 H         1 <0>         0.0654
     64 H29        -3.8080    2.1285    4.0517 H         1 <0>         0.0680
     65 H30        -2.1856    4.6407    3.4406 H         1 <0>         0.0691
     66 H31        -2.9309    5.3508    5.6964 H         1 <0>         0.0729
     67 H32        -3.7337    3.7788    5.9260 H         1 <0>         0.0678
     68 H33        -1.4999    3.8031    7.0024 H         1 <0>         0.0716
     69 H34        -0.7502    4.1994    5.4374 H         1 <0>         0.0667
     70 H35        -5.1691    4.2202    3.9292 H         1 <0>         0.0570
     71 H36        -4.3663    5.7921    3.6996 H         1 <0>         0.0583
     72 H37        -4.4193    4.6164    2.3643 H         1 <0>         0.0553
     73 H38        -0.0643    0.6570   11.1829 H         1 <0>         0.1346
     74 H39        -0.2671    2.5682   12.8802 H         1 <0>         0.1999
     75 H40         2.4497   -0.2218   -3.3477 H         1 <0>         0.0775
     76 H41         3.9610   -0.2446   -2.4077 H         1 <0>         0.0685
     77 H42         2.8951   -1.6701   -2.4138 H         1 <0>         0.0673
     78 H43         2.1090    1.0026    1.1869 H         1 <0>         0.4213
@<TRIPOS>BOND
     1    1    2 1
     2    1   38 1
     3    1   39 1
     4    1   40 1
     5    2    3 1
     6    2    9 1
     7    2    4 1
     8    4    5 1
     9    4   41 1
    10    4   42 1
    11    5    6 1
    12    5    7 1
    13    5   37 1
    14    7    8 1
    15    7   43 1
    16    7   44 1
    17    8    9 1
    18    8   10 1
    19    8   78 1
    20    9   45 1
    21    9   46 1
    22   10   11 1
    23   10   47 1
    24   10   48 1
    25   11   12 1
    26   11   49 1
    27   11   50 1
    28   12   13 1
    29   12   51 1
    30   12   52 1
    31   13   22 1
    32   13   14 am
    33   14   15 2
    34   14   16 1
    35   16   20 1
    36   16   17 2
    37   17   18 1
    38   17   53 1
    39   18   36 1
    40   18   19 2
    41   19   20 1
    42   19   34 1
    43   20   21 1
    44   21   22 1
    45   21   54 1
    46   21   55 1
    47   22   23 1
    48   22   24 1
    49   23   56 1
    50   23   57 1
    51   23   58 1
    52   24   25 2
    53   24   26 am
    54   26   27 1
    55   26   59 1
    56   27   32 1
    57   27   28 1
    58   27   60 1
    59   28   29 1
    60   28   61 1
    61   28   62 1
    62   29   30 1
    63   29   63 1
    64   29   64 1
    65   30   31 1
    66   30   33 1
    67   30   65 1
    68   31   32 1
    69   31   66 1
    70   31   67 1
    71   32   68 1
    72   32   69 1
    73   33   70 1
    74   33   71 1
    75   33   72 1
    76   34   35 2
    77   34   73 1
    78   35   36 1
    79   35   74 1
    80   37   75 1
    81   37   76 1
    82   37   77 1
@<TRIPOS>MOLECULE
ZINC09033899
   71    76     0     0     0
SMALL
USER_CHARGES
2-(2,3-dimethylphenoxy)-N-[2-oxo-1-[(oxoBLAHyl)methyl]indolin-3-ylidene]amino-acetamide
@<TRIPOS>ATOM
      1 C1         12.7635   -3.1106    0.6992 C.3       1 <0>        -0.1225
      2 C2         11.2595   -3.0791    0.6093 C.ar      1 <0>        -0.0460
      3 C3         10.5417   -4.2610    0.6242 C.ar      1 <0>        -0.1465
      4 C4          9.1619   -4.2356    0.5414 C.ar      1 <0>        -0.0817
      5 C5          8.4963   -3.0282    0.4503 C.ar      1 <0>        -0.2129
      6 C6          9.2144   -1.8416    0.4290 C.ar      1 <0>         0.1227
      7 C7         10.5992   -1.8699    0.5117 C.ar      1 <0>        -0.1067
      8 C8         11.3821   -0.5823    0.4956 C.3       1 <0>        -0.1132
      9 O1          8.5624   -0.6531    0.3328 O.3       1 <0>        -0.2859
     10 C9          7.1365   -0.7001    0.2513 C.3       1 <0>         0.0517
     11 C10         6.5926    0.7017    0.1511 C.2       1 <0>         0.5279
     12 O2          7.3512    1.6476    0.1496 O.2       1 <0>        -0.4445
     13 N1          5.2631    0.9040    0.0632 N.am      1 <0>        -0.5670
     14 N2          4.7574    2.2073   -0.0300 N.2       1 <0>        -0.0800
     15 C11         3.4633    2.4122    0.0055 C.2       1 <0>         0.0455
     16 C12         2.3987    1.4156    0.2665 C.ar      1 <0>        -0.1266
     17 C13         2.4170    0.0519    0.5372 C.ar      1 <0>        -0.0552
     18 C14         1.2293   -0.6217    0.7415 C.ar      1 <0>        -0.1093
     19 C15         0.0254    0.0596    0.6773 C.ar      1 <0>        -0.0602
     20 C16        -0.0029    1.4132    0.4088 C.ar      1 <0>        -0.1317
     21 C17         1.1832    2.1085    0.1998 C.ar      1 <0>         0.1317
     22 N3          1.4317    3.4472   -0.0825 N.am      1 <0>        -0.5610
     23 C18         2.7480    3.6868   -0.2086 C.2       1 <0>         0.5913
     24 O3          3.2600    4.7630   -0.4541 O.2       1 <0>        -0.4385
     25 C19         0.3901    4.4675   -0.2246 C.3       1 <0>         0.2318
     26 C20        -0.4235    6.4317    0.9295 C.3       1 <0>         0.0000
     27 C21        -0.6459    7.0905    2.2827 C.3       1 <0>        -0.1215
     28 H1         -1.1479    8.0447    2.1225 H         1 <0>         0.1461
     29 C22        -1.5382    6.2191    3.1711 C.3       1 <0>        -0.1289
     30 C23        -0.8674    4.8463    3.2954 C.3       1 <0>        -0.0609
     31 H2         -1.4373    4.2017    3.9646 H         1 <0>         0.1524
     32 C24        -0.7730    4.2340    1.8880 C.3       1 <0>        -0.0088
     33 C25         0.5437    5.0274    3.8078 C.2       1 <0>         0.0926
     34 C26         1.0866    4.0074    4.5237 C.2       1 <0>        -0.1850
     35 C27         2.4091    4.0807    4.9747 C.2       1 <0>        -0.0278
     36 C28         3.1519    5.1813    4.6617 C.2       1 <0>        -0.2130
     37 C29         2.5629    6.2134    3.9181 C.2       1 <0>         0.5060
     38 O4          3.2354    7.1743    3.5800 O.2       1 <0>        -0.5176
     39 N4          1.2537    6.1548    3.5707 N.am      1 <0>        -0.5086
     40 C30         0.6651    7.3668    2.9994 C.3       1 <0>         0.0750
     41 H3         13.0659   -3.0683    1.7456 H         1 <0>         0.0769
     42 H4         13.1351   -4.0318    0.2505 H         1 <0>         0.0714
     43 H5         13.1773   -2.2543    0.1665 H         1 <0>         0.0751
     44 H6         11.0598   -5.2055    0.7002 H         1 <0>         0.1274
     45 H7          8.6036   -5.1600    0.5529 H         1 <0>         0.1277
     46 H8          7.4182   -3.0086    0.3905 H         1 <0>         0.1252
     47 H9         11.5106   -0.2224    1.5164 H         1 <0>         0.0709
     48 H10        12.3596   -0.7571    0.0461 H         1 <0>         0.0721
     49 H11        10.8423    0.1638   -0.0875 H         1 <0>         0.0716
     50 H12         6.7373   -1.1818    1.1439 H         1 <0>         0.1036
     51 H13         6.8416   -1.2682   -0.6309 H         1 <0>         0.1047
     52 H14         4.6562    0.1473    0.0644 H         1 <0>         0.3963
     53 H15         3.3565   -0.4784    0.5870 H         1 <0>         0.1289
     54 H16         1.2391   -1.6809    0.9520 H         1 <0>         0.1483
     55 H17        -0.9000   -0.4732    0.8385 H         1 <0>         0.1490
     56 H18        -0.9484    1.9325    0.3566 H         1 <0>         0.1353
     57 H19         0.7256    5.2345   -0.9227 H         1 <0>         0.1637
     58 H20        -0.5218    4.0056   -0.6030 H         1 <0>         0.1671
     59 H21         0.2741    7.0349    0.3484 H         1 <0>         0.1382
     60 H22        -1.3744    6.3751    0.3997 H         1 <0>         0.1487
     61 H23        -1.6357    6.6738    4.1569 H         1 <0>         0.1061
     62 H24        -2.5221    6.1113    2.7147 H         1 <0>         0.1061
     63 H25        -1.7623    4.2062    1.4312 H         1 <0>         0.1527
     64 H26        -0.3674    3.2243    1.9519 H         1 <0>         0.1345
     65 H27         0.4923    3.1336    4.7465 H         1 <0>         0.1535
     66 H28         2.8346    3.2797    5.5610 H         1 <0>         0.1474
     67 H29         4.1805    5.2563    4.9824 H         1 <0>         0.1603
     68 H30         1.3701    7.8015    2.2908 H         1 <0>         0.1124
     69 H31         0.4853    8.0836    3.8006 H         1 <0>         0.1085
     70 N5          0.1486    5.0816    1.0977 N.4       1 <0>        -0.4220
     71 H32         1.0421    5.1584    1.5978 H         1 <0>         0.4252
@<TRIPOS>BOND
     1    1    2 1
     2    1   41 1
     3    1   42 1
     4    1   43 1
     5    2    7 ar
     6    2    3 ar
     7    3    4 ar
     8    3   44 1
     9    4    5 ar
    10    4   45 1
    11    5    6 ar
    12    5   46 1
    13    6    7 ar
    14    6    9 1
    15    7    8 1
    16    8   47 1
    17    8   48 1
    18    8   49 1
    19    9   10 1
    20   10   11 1
    21   10   50 1
    22   10   51 1
    23   11   12 2
    24   11   13 am
    25   13   14 1
    26   13   52 1
    27   14   15 2
    28   15   23 1
    29   15   16 1
    30   16   21 ar
    31   16   17 ar
    32   17   18 ar
    33   17   53 1
    34   18   19 ar
    35   18   54 1
    36   19   20 ar
    37   19   55 1
    38   20   21 ar
    39   20   56 1
    40   21   22 1
    41   22   23 am
    42   22   25 1
    43   23   24 2
    44   25   57 1
    45   25   58 1
    46   25   70 1
    47   26   27 1
    48   26   59 1
    49   26   60 1
    50   26   70 1
    51   27   28 1
    52   27   40 1
    53   27   29 1
    54   29   30 1
    55   29   61 1
    56   29   62 1
    57   30   31 1
    58   30   32 1
    59   30   33 1
    60   32   63 1
    61   32   64 1
    62   32   70 1
    63   33   39 1
    64   33   34 2
    65   34   35 1
    66   34   65 1
    67   35   36 2
    68   35   66 1
    69   36   37 1
    70   36   67 1
    71   37   38 2
    72   37   39 am
    73   39   40 1
    74   40   68 1
    75   40   69 1
    76   70   71 1
@<TRIPOS>MOLECULE
ZINC19850478
   57    59     0     0     0
SMALL
USER_CHARGES
2-[4-(4-bromophenyl)sulfonylpiperazin-1-yl]-N-[(4-ethoxyphenyl)methyleneamino]acetamide
@<TRIPOS>ATOM
      1 C1         -5.4922    5.1337  -11.0156 C.3       1 <0>        -0.1577
      2 C2         -5.3411    5.9553   -9.7338 C.3       1 <0>         0.0491
      3 O1         -4.6509    5.1814   -8.7505 O.3       1 <0>        -0.3099
      4 C3         -4.4330    5.7686   -7.5451 C.ar      1 <0>         0.1609
      5 C4         -3.7676    5.0708   -6.5452 C.ar      1 <0>        -0.1504
      6 C5         -3.5443    5.6624   -5.3209 C.ar      1 <0>        -0.0936
      7 C6         -3.9884    6.9663   -5.0860 C.ar      1 <0>        -0.1609
      8 C7         -4.6624    7.6624   -6.0929 C.ar      1 <0>        -0.0324
      9 C8         -4.8766    7.0647   -7.3159 C.ar      1 <0>        -0.2033
     10 C9         -3.7518    7.6036   -3.7778 C.2       1 <0>         0.1566
     11 N1         -2.8152    7.1569   -2.9983 N.2       1 <0>        -0.2428
     12 N2         -1.8191    6.3157   -3.5109 N.am      1 <0>        -0.5827
     13 C10        -0.9388    5.7275   -2.6769 C.2       1 <0>         0.5127
     14 O2         -1.0090    5.9264   -1.4823 O.2       1 <0>        -0.4975
     15 C11         0.1328    4.8227   -3.2284 C.3       1 <0>        -0.0264
     16 N3          0.9042    4.2450   -2.1197 N.4       1 <0>        -0.3775
     17 C12         0.0566    3.3902   -1.2778 C.3       1 <0>        -0.0314
     18 C13         0.9301    2.6671   -0.2471 C.3       1 <0>         0.0947
     19 N4          1.7236    3.6676    0.4828 N.pl3     1 <0>        -1.0096
     20 C14         2.4896    4.6518   -0.2981 C.3       1 <0>         0.0947
     21 C15         1.5547    5.2967   -1.3268 C.3       1 <0>        -0.0367
     22 S1          1.7490    3.6891    2.1385 S.o2      1 <0>         2.6918
     23 O3          2.0943    5.0130    2.5222 O.2       1 <0>        -0.9340
     24 O4          0.5515    3.0583    2.5713 O.2       1 <0>        -0.9348
     25 C16         3.0782    2.6529    2.6526 C.ar      1 <0>        -0.6741
     26 C17         2.8566    1.3080    2.8833 C.ar      1 <0>        -0.0142
     27 C18         3.9000    0.4939    3.2819 C.ar      1 <0>        -0.1093
     28 C19         5.1638    1.0271    3.4602 C.ar      1 <0>        -0.0339
     29 C20         5.3840    2.3739    3.2343 C.ar      1 <0>        -0.1092
     30 C21         4.3411    3.1862    2.8306 C.ar      1 <0>        -0.0140
     31 Br1         6.5903   -0.0849    4.0119 Br        1 <0>        -0.0184
     32 H1         -6.0235    5.7294  -11.7725 H         1 <0>         0.0858
     33 H2         -6.0651    4.2198  -10.7999 H         1 <0>         0.0699
     34 H3         -4.4967    4.8612  -11.3959 H         1 <0>         0.0691
     35 H4         -4.7682    6.8692   -9.9495 H         1 <0>         0.0687
     36 H5         -6.3366    6.2278   -9.3534 H         1 <0>         0.0694
     37 H6         -3.4251    4.0629   -6.7275 H         1 <0>         0.1391
     38 H7         -3.0272    5.1190   -4.5439 H         1 <0>         0.1345
     39 H8         -5.0116    8.6686   -5.9141 H         1 <0>         0.1413
     40 H9         -5.3938    7.6034   -8.0961 H         1 <0>         0.1403
     41 H10        -4.3691    8.4577   -3.4624 H         1 <0>         0.1994
     42 H11        -1.7554    6.1352   -4.5941 H         1 <0>         0.4184
     43 H12        -0.3337    4.0145   -3.8108 H         1 <0>         0.1637
     44 H13         0.8038    5.4031   -3.8787 H         1 <0>         0.1670
     45 H14        -0.6884    4.0107   -0.7581 H         1 <0>         0.1519
     46 H15        -0.4581    2.6499   -1.9079 H         1 <0>         0.1436
     47 H16         0.2879    2.1148    0.4548 H         1 <0>         0.1398
     48 H17         1.5995    1.9631   -0.7631 H         1 <0>         0.1012
     49 H18         2.8917    5.4222    0.3763 H         1 <0>         0.1397
     50 H19         3.3196    4.1457   -0.8128 H         1 <0>         0.1002
     51 H20         2.1361    5.9513   -1.9928 H         1 <0>         0.1431
     52 H21         0.7887    5.8903   -0.8064 H         1 <0>         0.1629
     53 H22         1.8689    0.8926    2.7481 H         1 <0>         0.1502
     54 H23         3.7277   -0.5577    3.4579 H         1 <0>         0.1484
     55 H24         6.3707    2.7906    3.3730 H         1 <0>         0.1485
     56 H25         4.5130    4.2377    2.6538 H         1 <0>         0.1503
     57 H26         1.6950    3.6125   -2.5493 H         1 <0>         0.4478
@<TRIPOS>BOND
     1    1    2 1
     2    1   32 1
     3    1   33 1
     4    1   34 1
     5    2    3 1
     6    2   35 1
     7    2   36 1
     8    3    4 1
     9    4    9 ar
    10    4    5 ar
    11    5    6 ar
    12    5   37 1
    13    6    7 ar
    14    6   38 1
    15    7    8 ar
    16    7   10 1
    17    8    9 ar
    18    8   39 1
    19    9   40 1
    20   10   11 2
    21   10   41 1
    22   11   12 1
    23   12   13 am
    24   12   42 1
    25   13   14 2
    26   13   15 1
    27   15   16 1
    28   15   43 1
    29   15   44 1
    30   16   21 1
    31   16   17 1
    32   16   57 1
    33   17   18 1
    34   17   45 1
    35   17   46 1
    36   18   19 1
    37   18   47 1
    38   18   48 1
    39   19   20 1
    40   19   22 1
    41   20   21 1
    42   20   49 1
    43   20   50 1
    44   21   51 1
    45   21   52 1
    46   22   23 2
    47   22   24 2
    48   22   25 1
    49   25   30 ar
    50   25   26 ar
    51   26   27 ar
    52   26   53 1
    53   27   28 ar
    54   27   54 1
    55   28   29 ar
    56   28   31 1
    57   29   30 ar
    58   29   55 1
    59   30   56 1
@<TRIPOS>MOLECULE
ZINC39468673
   62    66     0     0     0
SMALL
USER_CHARGES

@<TRIPOS>ATOM
      1 C1          1.1485    2.2212   -0.0930 C.3       1 <0>        -0.0275
      2 S1          1.1135    0.4176   -0.2836 S.3       1 <0>        -0.6900
      3 P1          1.8203   -0.3087    1.5785 P.3       1 <0>         2.2264
      4 O1          0.9089    0.1044    2.6688 O.2       1 <0>        -0.8920
      5 N1          1.9594   -1.9527    1.5361 N.pl3     1 <0>        -1.0013
      6 N2          2.7831   -2.5528    2.4650 N.4       1 <0>        -0.1439
      7 C2          2.8066   -3.9840    2.1230 C.3       1 <0>        -0.0060
      8 C3          3.6807   -4.7652    3.0939 C.3       1 <0>        -0.0668
      9 H1          3.6923   -5.8155    2.8024 H         1 <0>         0.1424
     10 C4          3.1517   -4.6450    4.4977 C.2       1 <0>        -0.2119
     11 C5          3.9695   -4.8559    5.5265 C.2       1 <0>         0.0085
     12 C6          5.3752   -5.2155    5.2732 C.2       1 <0>        -0.6874
     13 C7          5.9327   -4.9197    4.1031 C.2       1 <0>         0.0321
     14 C8          5.1092   -4.2138    3.0540 C.3       1 <0>        -0.0797
     15 H2          5.5490   -4.3857    2.0716 H         1 <0>         0.1259
     16 C9          5.0633   -2.7183    3.3702 C.3       1 <0>        -0.1340
     17 C10         4.1333   -1.9896    2.3933 C.3       1 <0>        -0.0456
     18 H3          4.5173   -2.0974    1.3789 H         1 <0>         0.1690
     19 C11         4.1448   -0.5054    2.7824 C.3       1 <0>         0.0759
     20 O2          3.3258    0.2393    1.8633 O.3       1 <0>        -0.6707
     21 S2          6.3156   -6.0350    6.5178 S.o2      1 <0>         2.6641
     22 O3          7.6219   -6.2138    5.9880 O.2       1 <0>        -0.9440
     23 O4          6.0751   -5.3386    7.7329 O.2       1 <0>        -0.9091
     24 O5          5.7212   -7.4257    6.6884 O.3       1 <0>        -0.6498
     25 C12         6.0317   -8.2866    5.6837 C.ar      1 <0>         0.0528
     26 C13         5.2124   -8.3767    4.5678 C.ar      1 <0>        -0.1244
     27 C14         5.5305   -9.2523    3.5478 C.ar      1 <0>        -0.1051
     28 C15         6.6641  -10.0387    3.6384 C.ar      1 <0>        -0.0927
     29 C16         7.4821   -9.9510    4.7497 C.ar      1 <0>        -0.0962
     30 C17         7.1716   -9.0726    5.7697 C.ar      1 <0>        -0.0875
     31 C18         3.4610   -4.7283    6.9394 C.3       1 <0>        -0.0746
     32 C19         3.5645   -3.2917    7.3827 C.ar      1 <0>        -0.0845
     33 C20         4.7578   -2.8079    7.8856 C.ar      1 <0>        -0.1144
     34 C21         4.8528   -1.4902    8.2923 C.ar      1 <0>        -0.1188
     35 C22         3.7547   -0.6561    8.1956 C.ar      1 <0>        -0.1168
     36 C23         2.5617   -1.1397    7.6919 C.ar      1 <0>        -0.1228
     37 C24         2.4679   -2.4563    7.2812 C.ar      1 <0>        -0.1264
     38 H4          2.1686    2.5449    0.1136 H         1 <0>         0.0999
     39 H5          0.7975    2.6905   -1.0121 H         1 <0>         0.1338
     40 H6          0.5006    2.5118    0.7338 H         1 <0>         0.1064
     41 H7          1.4774   -2.4794    0.8795 H         1 <0>         0.4621
     42 H8          1.7907   -4.3774    2.1604 H         1 <0>         0.1527
     43 H9          3.1985   -4.1039    1.1130 H         1 <0>         0.1487
     44 H10         2.1163   -4.3899    4.6690 H         1 <0>         0.1392
     45 H11         6.9650   -5.1740    3.9134 H         1 <0>         0.1652
     46 H12         4.6981   -2.5770    4.3874 H         1 <0>         0.1126
     47 H13         6.0675   -2.3026    3.2883 H         1 <0>         0.1387
     48 H14         3.7521   -0.3918    3.7928 H         1 <0>         0.1116
     49 H15         5.1668   -0.1283    2.7457 H         1 <0>         0.1688
     50 H16         4.3264   -7.7632    4.4969 H         1 <0>         0.1349
     51 H17         4.8930   -9.3228    2.6788 H         1 <0>         0.1392
     52 H18         6.9109  -10.7228    2.8400 H         1 <0>         0.1402
     53 H19         8.3668  -10.5666    4.8184 H         1 <0>         0.1455
     54 H20         7.8133   -9.0012    6.6356 H         1 <0>         0.1438
     55 H21         2.4195   -5.0472    6.9809 H         1 <0>         0.0973
     56 H22         4.0597   -5.3562    7.5992 H         1 <0>         0.1056
     57 H23         5.6158   -3.4596    7.9612 H         1 <0>         0.1509
     58 H24         5.7849   -1.1124    8.6859 H         1 <0>         0.1257
     59 H25         3.8288    0.3733    8.5140 H         1 <0>         0.1246
     60 H26         1.7037   -0.4881    7.6167 H         1 <0>         0.1252
     61 H27         1.5369   -2.8331    6.8842 H         1 <0>         0.1187
     62 H28         2.4068   -2.4175    3.3914 H         1 <0>         0.4355
@<TRIPOS>BOND
     1    1    2 1
     2    1   38 1
     3    1   39 1
     4    1   40 1
     5    2    3 1
     6    3   20 1
     7    3    4 2
     8    3    5 1
     9    5    6 1
    10    5   41 1
    11    6   17 1
    12    6    7 1
    13    6   62 1
    14    7    8 1
    15    7   42 1
    16    7   43 1
    17    8    9 1
    18    8   14 1
    19    8   10 1
    20   10   11 2
    21   10   44 1
    22   11   12 1
    23   11   31 1
    24   12   13 2
    25   12   21 1
    26   13   14 1
    27   13   45 1
    28   14   15 1
    29   14   16 1
    30   16   17 1
    31   16   46 1
    32   16   47 1
    33   17   18 1
    34   17   19 1
    35   19   20 1
    36   19   48 1
    37   19   49 1
    38   21   22 2
    39   21   23 2
    40   21   24 1
    41   24   25 1
    42   25   30 ar
    43   25   26 ar
    44   26   27 ar
    45   26   50 1
    46   27   28 ar
    47   27   51 1
    48   28   29 ar
    49   28   52 1
    50   29   30 ar
    51   29   53 1
    52   30   54 1
    53   31   32 1
    54   31   55 1
    55   31   56 1
    56   32   37 ar
    57   32   33 ar
    58   33   34 ar
    59   33   57 1
    60   34   35 ar
    61   34   58 1
    62   35   36 ar
    63   35   59 1
    64   36   37 ar
    65   36   60 1
    66   37   61 1
@<TRIPOS>MOLECULE
ZINC52566299
   57    62     0     0     0
SMALL
USER_CHARGES

@<TRIPOS>ATOM
      1 C1         -1.7140    0.2696   -1.2041 C.ar      1 <0>        -0.1388
      2 C2         -0.8434    1.3276   -1.4998 C.ar      1 <0>         0.0571
      3 C3          0.4997    1.1948   -1.4772 C.ar      1 <0>        -0.2054
      4 C4          1.0929   -0.0543   -1.1448 C.ar      1 <0>         0.3336
      5 N1          2.3459   -0.4296   -1.0564 N.pl3     1 <0>        -0.5722
      6 C5          2.3844   -1.8453   -0.6734 C.3       1 <0>         0.0614
      7 C6          0.9414   -2.2784   -0.5409 C.2       1 <0>         0.0293
      8 C7          0.1949   -1.1878   -0.8283 C.ar      1 <0>        -0.1327
      9 C8         -1.2542   -0.9591   -0.8755 C.ar      1 <0>        -0.0203
     10 C9          0.4374   -3.6481   -0.1654 C.3       1 <0>         0.1868
     11 H1         -0.6526   -3.6444   -0.1551 H         1 <0>         0.1714
     12 N2          0.9363   -4.0046    1.1607 N.am      1 <0>        -0.5645
     13 C10         2.1650   -4.4558    1.3977 C.2       1 <0>         0.5524
     14 O1          2.5084   -4.5650    2.5593 O.2       1 <0>        -0.4766
     15 C11         3.1368   -4.8319    0.3671 C.ar      1 <0>        -0.1382
     16 C12         4.4866   -4.9941    0.7007 C.ar      1 <0>        -0.0384
     17 C13         5.3998   -5.3318   -0.2727 C.ar      1 <0>        -0.1073
     18 C14         4.9972   -5.5128   -1.5871 C.ar      1 <0>        -0.0671
     19 C15         3.6695   -5.3628   -1.9347 C.ar      1 <0>        -0.0892
     20 C16         2.7364   -5.0313   -0.9640 C.ar      1 <0>        -0.0985
     21 S1          1.0283   -4.8654   -1.3785 S.3       1 <0>        -0.0172
     22 C17         0.0686   -3.8624    2.2482 C.ar      1 <0>         0.1683
     23 C18         0.0079   -2.6579    2.9372 C.ar      1 <0>        -0.1295
     24 C19        -0.8505   -2.5206    4.0104 C.ar      1 <0>        -0.0097
     25 C20        -1.6489   -3.5806    4.3992 C.ar      1 <0>        -0.6559
     26 C21        -1.5906   -4.7812    3.7156 C.ar      1 <0>         0.0215
     27 C22        -0.7385   -4.9233    2.6380 C.ar      1 <0>        -0.1251
     28 S2         -2.7426   -3.4011    5.7690 S.o2      1 <0>         2.6897
     29 O2         -2.9825   -4.7086    6.2712 O.2       1 <0>        -0.9160
     30 O3         -2.2131   -2.3596    6.5778 O.2       1 <0>        -0.9448
     31 N3         -4.1865   -2.8505    5.1738 N.pl3     1 <0>        -1.0335
     32 C23        -4.9363   -3.6502    4.3191 C.ar      1 <0>         0.3753
     33 C24        -6.1458   -3.1791    3.8181 C.ar      1 <0>        -0.1960
     34 C25        -6.8816   -3.9853    2.9687 C.ar      1 <0>        -0.0384
     35 C26        -6.3813   -5.2404    2.6474 C.ar      1 <0>        -0.1985
     36 C27        -5.1739   -5.6438    3.1808 C.ar      1 <0>         0.1459
     37 N4         -4.4904   -4.8511    3.9847 N.ar      1 <0>        -0.5292
     38 H2         -2.7799    0.4412   -1.2353 H         1 <0>         0.1618
     39 H3         -1.2646    2.2884   -1.7566 H         1 <0>         0.1650
     40 H4          1.1271    2.0416   -1.7131 H         1 <0>         0.1648
     41 H5          2.8827   -2.4302   -1.4465 H         1 <0>         0.1740
     42 H6          2.9010   -1.9629    0.2791 H         1 <0>         0.1672
     43 H7         -1.9430   -1.7600   -0.6510 H         1 <0>         0.1609
     44 H8          4.8115   -4.8541    1.7211 H         1 <0>         0.1494
     45 H9          6.4399   -5.4566   -0.0100 H         1 <0>         0.1461
     46 H10         5.7249   -5.7717   -2.3419 H         1 <0>         0.1469
     47 H11         3.3585   -5.5036   -2.9593 H         1 <0>         0.1461
     48 H12         0.6315   -1.8298    2.6343 H         1 <0>         0.1265
     49 H13        -0.8979   -1.5844    4.5468 H         1 <0>         0.1485
     50 H14        -2.2149   -5.6074    4.0223 H         1 <0>         0.1648
     51 H15        -0.6969   -5.8598    2.1016 H         1 <0>         0.1411
     52 H16        -4.5091   -1.9699    5.4216 H         1 <0>         0.4371
     53 H17        -6.5055   -2.1975    4.0891 H         1 <0>         0.1406
     54 H18        -7.8241   -3.6466    2.5646 H         1 <0>         0.1425
     55 H19        -6.9316   -5.8943    1.9871 H         1 <0>         0.1419
     56 H20        -4.7814   -6.6192    2.9338 H         1 <0>         0.1667
     57 H21         3.1185    0.1344   -1.2176 H         1 <0>         0.4589
@<TRIPOS>BOND
     1    1    9 ar
     2    1    2 ar
     3    1   38 1
     4    2    3 ar
     5    2   39 1
     6    3    4 ar
     7    3   40 1
     8    4    8 ar
     9    4    5 2
    10    5    6 1
    11    5   57 1
    12    6    7 1
    13    6   41 1
    14    6   42 1
    15    7    8 2
    16    7   10 1
    17    8    9 ar
    18    9   43 1
    19   10   11 1
    20   10   21 1
    21   10   12 1
    22   12   13 am
    23   12   22 1
    24   13   14 2
    25   13   15 1
    26   15   20 ar
    27   15   16 ar
    28   16   17 ar
    29   16   44 1
    30   17   18 ar
    31   17   45 1
    32   18   19 ar
    33   18   46 1
    34   19   20 ar
    35   19   47 1
    36   20   21 1
    37   22   27 ar
    38   22   23 ar
    39   23   24 ar
    40   23   48 1
    41   24   25 ar
    42   24   49 1
    43   25   26 ar
    44   25   28 1
    45   26   27 ar
    46   26   50 1
    47   27   51 1
    48   28   29 2
    49   28   30 2
    50   28   31 1
    51   31   32 1
    52   31   52 1
    53   32   37 ar
    54   32   33 ar
    55   33   34 ar
    56   33   53 1
    57   34   35 ar
    58   34   54 1
    59   35   36 ar
    60   35   55 1
    61   36   37 ar
    62   36   56 1
@<TRIPOS>MOLECULE
ZINC35481361
   72    76     0     0     0
SMALL
USER_CHARGES

@<TRIPOS>ATOM
      1 C1          1.8891    0.7425    3.9261 C.3       1 <0>        -0.1163
      2 C2          1.6983   -0.6947    3.5147 C.ar      1 <0>        -0.0799
      3 C3          2.4198   -1.2104    2.4524 C.ar      1 <0>        -0.1224
      4 C4          2.2500   -2.5285    2.0684 C.ar      1 <0>        -0.1073
      5 C5          1.3595   -3.3377    2.7438 C.ar      1 <0>        -0.1308
      6 C6          0.6296   -2.8239    3.8159 C.ar      1 <0>         0.0210
      7 C7          0.8091   -1.4950    4.2016 C.ar      1 <0>        -0.0972
      8 C8         -0.3277   -3.6867    4.5449 C.2       1 <0>        -0.0248
      9 C9         -1.0954   -4.6731    4.0010 C.2       1 <0>         0.3749
     10 N1         -1.8459   -5.2324    5.0243 N.pl3     1 <0>        -0.3390
     11 C10        -1.4864   -4.5424    6.1552 C.2       1 <0>         0.1238
     12 N2         -0.5936   -3.6407    5.8767 N.2       1 <0>        -0.3759
     13 S1         -2.4843   -5.3142    7.4079 S.3       1 <0>         0.0799
     14 C11        -3.3115   -6.4978    6.3576 C.2       1 <0>         0.3708
     15 N3         -2.7963   -6.2356    5.1877 N.2       1 <0>        -0.3179
     16 N4         -4.2578   -7.4511    6.6978 N.pl3     1 <0>        -0.5395
     17 C12        -4.8136   -8.3318    5.6674 C.3       1 <0>         0.0979
     18 C13        -4.7025   -7.5783    8.0878 C.3       1 <0>         0.1079
     19 C14        -5.8910   -6.6811    8.3192 C.2       1 <0>         0.4935
     20 O1         -6.3239   -6.0022    7.4122 O.2       1 <0>        -0.4970
     21 N5         -6.4727   -6.6331    9.5340 N.am      1 <0>        -0.6199
     22 C15        -5.9551   -7.4455   10.6438 C.3       1 <0>         0.0876
     23 C16        -5.6419   -6.5188   11.8251 C.3       1 <0>         0.0929
     24 N6         -6.8049   -5.6527   12.0637 N.pl3     1 <0>        -0.5906
     25 C17        -7.3226   -4.8402   10.9538 C.3       1 <0>         0.0850
     26 C18        -7.6323   -5.7627    9.7741 C.3       1 <0>         0.0971
     27 C19        -7.4049   -5.6032   13.3166 C.ar      1 <0>         0.4444
     28 C20        -6.8110   -6.2567   14.3918 C.ar      1 <0>        -0.1995
     29 C21        -7.4188   -6.1992   15.6327 C.ar      1 <0>         0.0396
     30 C22        -8.6048   -5.4873   15.7576 C.ar      1 <0>        -0.1694
     31 C23        -9.1384   -4.8628   14.6484 C.ar      1 <0>         0.1482
     32 N7         -8.5336   -4.9300   13.4773 N.ar      1 <0>        -0.5067
     33 N8         -1.1219   -5.0515    2.6559 N.pl3     1 <0>        -0.7121
     34 C24        -1.8806   -6.2346    2.2426 C.3       1 <0>         0.1752
     35 C25        -3.3733   -5.9887    2.4711 C.3       1 <0>        -0.1644
     36 C26        -1.6301   -6.5083    0.7583 C.3       1 <0>        -0.1549
     37 C27        -1.4307   -7.4425    3.0669 C.3       1 <0>        -0.1635
     38 H1          2.6859    0.8057    4.6671 H         1 <0>         0.0720
     39 H2          2.1568    1.3378    3.0531 H         1 <0>         0.0677
     40 H3          0.9625    1.1236    4.3554 H         1 <0>         0.0662
     41 H4          3.1180   -0.5810    1.9206 H         1 <0>         0.1231
     42 H5          2.8155   -2.9249    1.2381 H         1 <0>         0.1254
     43 H6          1.2276   -4.3665    2.4429 H         1 <0>         0.1204
     44 H7          0.2502   -1.0927    5.0335 H         1 <0>         0.1254
     45 H8         -4.2022   -9.2307    5.5892 H         1 <0>         0.0698
     46 H9         -5.8331   -8.6080    5.9368 H         1 <0>         0.0799
     47 H10        -4.8193   -7.8118    4.7094 H         1 <0>         0.0848
     48 H11        -4.9840   -8.6125    8.2861 H         1 <0>         0.1331
     49 H12        -3.8922   -7.2878    8.7566 H         1 <0>         0.1131
     50 H13        -6.7054   -8.1777   10.9422 H         1 <0>         0.0900
     51 H14        -5.0456   -7.9575   10.3293 H         1 <0>         0.1136
     52 H15        -5.4414   -7.1155   12.7150 H         1 <0>         0.1166
     53 H16        -4.7719   -5.9062   11.5887 H         1 <0>         0.1042
     54 H17        -8.2320   -4.3283   11.2684 H         1 <0>         0.0898
     55 H18        -6.5722   -4.1081   10.6555 H         1 <0>         0.1085
     56 H19        -7.8303   -5.1635    8.8853 H         1 <0>         0.1215
     57 H20        -8.5048   -6.3723   10.0091 H         1 <0>         0.0813
     58 H21        -5.8882   -6.8018   14.2590 H         1 <0>         0.1797
     59 H22        -6.9812   -6.6969   16.4855 H         1 <0>         0.1755
     60 H23        -9.1046   -5.4234   16.7128 H         1 <0>         0.1814
     61 H24       -10.0606   -4.3084   14.7410 H         1 <0>         0.2069
     62 H25        -0.6380   -4.5307    1.9959 H         1 <0>         0.4180
     63 H26        -3.7323   -5.2457    1.7589 H         1 <0>         0.0505
     64 H27        -3.9207   -6.9208    2.3307 H         1 <0>         0.0609
     65 H28        -3.5303   -5.6245    3.4863 H         1 <0>         0.0781
     66 H29        -0.5666   -6.6835    0.5956 H         1 <0>         0.0642
     67 H30        -2.1945   -7.3886    0.4508 H         1 <0>         0.0757
     68 H31        -1.9506   -5.6477    0.1710 H         1 <0>         0.0634
     69 H32        -1.4800   -7.1971    4.1278 H         1 <0>         0.0756
     70 H33        -2.0855   -8.2886    2.8589 H         1 <0>         0.0630
     71 H34        -0.4059   -7.7023    2.8014 H         1 <0>         0.0522
     72 H35        -8.9280   -4.4786   12.7147 H         1 <0>         0.4380
@<TRIPOS>BOND
     1    1    2 1
     2    1   38 1
     3    1   39 1
     4    1   40 1
     5    2    7 ar
     6    2    3 ar
     7    3    4 ar
     8    3   41 1
     9    4    5 ar
    10    4   42 1
    11    5    6 ar
    12    5   43 1
    13    6    7 ar
    14    6    8 1
    15    7   44 1
    16    8   12 1
    17    8    9 2
    18    9   10 1
    19    9   33 1
    20   10   15 1
    21   10   11 1
    22   11   12 2
    23   11   13 1
    24   13   14 1
    25   14   15 2
    26   14   16 1
    27   16   17 1
    28   16   18 1
    29   17   45 1
    30   17   46 1
    31   17   47 1
    32   18   19 1
    33   18   48 1
    34   18   49 1
    35   19   20 2
    36   19   21 am
    37   21   26 1
    38   21   22 1
    39   22   23 1
    40   22   50 1
    41   22   51 1
    42   23   24 1
    43   23   52 1
    44   23   53 1
    45   24   25 1
    46   24   27 1
    47   25   26 1
    48   25   54 1
    49   25   55 1
    50   26   56 1
    51   26   57 1
    52   27   32 ar
    53   27   28 ar
    54   28   29 ar
    55   28   58 1
    56   29   30 ar
    57   29   59 1
    58   30   31 ar
    59   30   60 1
    60   31   32 ar
    61   31   61 1
    62   32   72 1
    63   33   34 1
    64   33   62 1
    65   34   35 1
    66   34   36 1
    67   34   37 1
    68   35   63 1
    69   35   64 1
    70   35   65 1
    71   36   66 1
    72   36   67 1
    73   36   68 1
    74   37   69 1
    75   37   70 1
    76   37   71 1
@<TRIPOS>MOLECULE
ZINC12497983
   62    67     0     0     0
SMALL
USER_CHARGES
methyl (1R,3S,3aS,6aS)-5-(2,3-dihydro-1,4-benzodioxin-6-yl)-1-(4-hydroxyphenyl)-4,6-dioxo-3-phenyl-1,2,3a,6a-tetrahydropyrrolo[4,3-c]pyrrole-3-carboxylate
@<TRIPOS>ATOM
      1 C1         -6.5865   -0.4459    4.0162 C.3       1 <0>         0.0354
      2 O1         -6.6321   -1.2299    2.7948 O.3       1 <0>        -0.3734
      3 C2         -7.0604   -0.6063    1.6860 C.2       1 <0>         0.4364
      4 O2         -7.3863    0.5562    1.7344 O.2       1 <0>        -0.3966
      5 C3         -7.1346   -1.3560    0.3809 C.3       1 <0>         0.1537
      6 C4         -5.7805   -1.3180   -0.3291 C.3       1 <0>        -0.1413
      7 H1         -5.8583   -1.4265   -1.4109 H         1 <0>         0.1907
      8 C5         -5.1229   -2.5502    0.4108 C.3       1 <0>        -0.1873
      9 H2         -5.1956   -2.2882    1.4664 H         1 <0>         0.1373
     10 C6         -6.1713   -3.5760    0.2843 C.3       1 <0>         0.1480
     11 H3         -6.0088   -4.3877    0.9933 H         1 <0>         0.1850
     12 C7         -6.2414   -4.1022   -1.1261 C.ar      1 <0>        -0.1621
     13 C8         -6.9091   -3.3818   -2.0992 C.ar      1 <0>        -0.1182
     14 C9         -6.9699   -3.8593   -3.3940 C.ar      1 <0>        -0.1293
     15 C10        -6.3704   -5.0685   -3.7150 C.ar      1 <0>         0.1480
     16 C11        -5.7059   -5.7922   -2.7356 C.ar      1 <0>        -0.1318
     17 C12        -5.6426   -5.3074   -1.4436 C.ar      1 <0>        -0.0512
     18 O3         -6.4344   -5.5435   -4.9867 O.3       1 <0>        -0.4926
     19 C13        -3.7231   -2.3417    0.1394 C.2       1 <0>         0.5847
     20 O4         -2.8732   -3.1845   -0.0533 O.2       1 <0>        -0.4058
     21 N1         -3.5642   -0.9781    0.1478 N.am      1 <0>        -0.5230
     22 C14        -4.7538   -0.3076    0.1176 C.2       1 <0>         0.5395
     23 O5         -4.9437    0.8579    0.3917 O.2       1 <0>        -0.4011
     24 C15        -2.3142   -0.3415    0.1891 C.ar      1 <0>         0.1108
     25 C16        -2.2408    1.0446    0.1949 C.ar      1 <0>        -0.1284
     26 C17        -1.0107    1.6718    0.2304 C.ar      1 <0>        -0.0879
     27 C18         0.1543    0.9196    0.2677 C.ar      1 <0>         0.0585
     28 C19         0.0836   -0.4686    0.2642 C.ar      1 <0>         0.0777
     29 C20        -1.1514   -1.0973    0.2237 C.ar      1 <0>        -0.1302
     30 O6          1.2154   -1.2239    0.3012 O.3       1 <0>        -0.3004
     31 C21         2.4403   -0.5645   -0.0375 C.3       1 <0>         0.0188
     32 C22         2.4869    0.7751    0.7099 C.3       1 <0>         0.0181
     33 O7          1.3580    1.5555    0.3019 O.3       1 <0>        -0.3004
     34 C23        -8.2030   -0.7640   -0.5018 C.ar      1 <0>        -0.1419
     35 C24        -7.8798    0.2300   -1.4065 C.ar      1 <0>        -0.0651
     36 C25        -8.8590    0.7699   -2.2192 C.ar      1 <0>        -0.0988
     37 C26       -10.1632    0.3223   -2.1208 C.ar      1 <0>        -0.0752
     38 C27       -10.4874   -0.6680   -1.2124 C.ar      1 <0>        -0.0981
     39 C28        -9.5073   -1.2110   -0.4028 C.ar      1 <0>        -0.1147
     40 H4         -6.2236   -1.0683    4.8341 H         1 <0>         0.1224
     41 H5         -5.9151    0.4017    3.8790 H         1 <0>         0.0791
     42 H6         -7.5867   -0.0826    4.2522 H         1 <0>         0.0808
     43 H7         -7.3801   -2.4430   -1.8476 H         1 <0>         0.1269
     44 H8         -7.4882   -3.2943   -4.1547 H         1 <0>         0.1437
     45 H9         -5.2380   -6.7336   -2.9831 H         1 <0>         0.1473
     46 H10        -5.1254   -5.8704   -0.6807 H         1 <0>         0.1453
     47 H11        -7.2029   -6.1046   -5.1588 H         1 <0>         0.4054
     48 H12        -3.1460    1.6331    0.1692 H         1 <0>         0.1560
     49 H13        -0.9559    2.7504    0.2353 H         1 <0>         0.1500
     50 H14        -1.2082   -2.1758    0.2194 H         1 <0>         0.1620
     51 H15         3.2861   -1.1829    0.2632 H         1 <0>         0.1306
     52 H16         2.4778   -0.3880   -1.1125 H         1 <0>         0.0838
     53 H17         2.4425    0.5982    1.7845 H         1 <0>         0.0831
     54 H18         3.4077    1.3029    0.4614 H         1 <0>         0.1304
     55 H19        -6.8616    0.5823   -1.4807 H         1 <0>         0.1346
     56 H20        -8.6056    1.5434   -2.9291 H         1 <0>         0.1447
     57 H21       -10.9287    0.7461   -2.7539 H         1 <0>         0.1430
     58 H22       -11.5063   -1.0177   -1.1356 H         1 <0>         0.1435
     59 H23        -9.7606   -1.9847    0.3069 H         1 <0>         0.1247
     60 N2         -7.4029   -2.7972    0.6265 N.4       1 <0>        -0.5226
     61 H24        -8.1843   -3.1090    0.0379 H         1 <0>         0.4476
     62 H25        -7.6402   -2.9415    1.6150 H         1 <0>         0.4500
@<TRIPOS>BOND
     1    1    2 1
     2    1   40 1
     3    1   41 1
     4    1   42 1
     5    2    3 1
     6    3    4 2
     7    3    5 1
     8    5    6 1
     9    5   34 1
    10    5   60 1
    11    6    7 1
    12    6   22 1
    13    6    8 1
    14    8    9 1
    15    8   10 1
    16    8   19 1
    17   10   11 1
    18   10   12 1
    19   10   60 1
    20   12   17 ar
    21   12   13 ar
    22   13   14 ar
    23   13   43 1
    24   14   15 ar
    25   14   44 1
    26   15   16 ar
    27   15   18 1
    28   16   17 ar
    29   16   45 1
    30   17   46 1
    31   18   47 1
    32   19   20 2
    33   19   21 am
    34   21   22 am
    35   21   24 1
    36   22   23 2
    37   24   29 ar
    38   24   25 ar
    39   25   26 ar
    40   25   48 1
    41   26   27 ar
    42   26   49 1
    43   27   33 1
    44   27   28 ar
    45   28   29 ar
    46   28   30 1
    47   29   50 1
    48   30   31 1
    49   31   32 1
    50   31   51 1
    51   31   52 1
    52   32   33 1
    53   32   53 1
    54   32   54 1
    55   34   39 ar
    56   34   35 ar
    57   35   36 ar
    58   35   55 1
    59   36   37 ar
    60   36   56 1
    61   37   38 ar
    62   37   57 1
    63   38   39 ar
    64   38   58 1
    65   39   59 1
    66   60   61 1
    67   60   62 1
@<TRIPOS>MOLECULE
ZINC23178276
   61    63     0     0     0
SMALL
USER_CHARGES
2-chloro-N-[2-[[(2R)-2-dimethylamino-2-(2-methoxyphenyl)ethyl]carbamoyl]phenyl]-4-nitro-benzamide
@<TRIPOS>ATOM
      1 C1          2.2850   -8.1339   -1.9009 C.3       1 <0>        -0.0443
      2 N1          2.0189   -6.7419   -1.5142 N.4       1 <0>        -0.3972
      3 C2          1.2667   -6.0390   -2.5622 C.3       1 <0>        -0.0556
      4 C3          1.3131   -6.6787   -0.2274 C.3       1 <0>         0.0855
      5 H1          1.8622   -7.3103    0.4864 H         1 <0>         0.1523
      6 C4          1.2593   -5.2274    0.2540 C.3       1 <0>         0.1007
      7 N2          2.6169   -4.6791    0.3048 N.am      1 <0>        -0.7558
      8 C5          2.8154   -3.4070    0.7033 C.2       1 <0>         0.5837
      9 O1          1.8677   -2.7145    1.0208 O.2       1 <0>        -0.5272
     10 C6          4.1823   -2.8549    0.7544 C.ar      1 <0>        -0.1830
     11 C7          5.2618   -3.6067    0.2848 C.ar      1 <0>        -0.0702
     12 C8          6.5363   -3.0852    0.3348 C.ar      1 <0>        -0.1381
     13 C9          6.7537   -1.8168    0.8488 C.ar      1 <0>        -0.0589
     14 C10         5.6966   -1.0602    1.3121 C.ar      1 <0>        -0.1273
     15 C11         4.4059   -1.5713    1.2746 C.ar      1 <0>         0.2229
     16 N3          3.3388   -0.8117    1.7454 N.am      1 <0>        -0.6693
     17 C12         3.3192    0.5208    1.5435 C.2       1 <0>         0.5568
     18 O2          4.2716    1.0711    1.0260 O.2       1 <0>        -0.4825
     19 C13         2.1404    1.3124    1.9511 C.ar      1 <0>        -0.0836
     20 C14         1.0446    0.6835    2.5459 C.ar      1 <0>        -0.0678
     21 C15        -0.0549    1.4274    2.9188 C.ar      1 <0>        -0.0591
     22 C16        -0.0708    2.7964    2.7144 C.ar      1 <0>        -0.0047
     23 C17         1.0103    3.4270    2.1265 C.ar      1 <0>        -0.0555
     24 C18         2.1165    2.6937    1.7430 C.ar      1 <0>         0.0106
     25 Cl1         3.4732    3.4865    1.0050 Cl        1 <0>         0.0096
     26 N4         -1.2531    3.5883    3.1219 N.pl3     1 <0>         0.0194
     27 O3         -1.2721    4.7923    2.9392 O.2       1 <0>        -0.1379
     28 O4         -2.2070    3.0358    3.6400 O.3       1 <0>        -0.1398
     29 C19        -0.0891   -7.2040   -0.3972 C.ar      1 <0>        -0.1832
     30 C20        -1.1313   -6.3286   -0.6350 C.ar      1 <0>        -0.0616
     31 C21        -2.4172   -6.8102   -0.7951 C.ar      1 <0>        -0.1455
     32 C22        -2.6654   -8.1679   -0.7082 C.ar      1 <0>        -0.0420
     33 C23        -1.6278   -9.0466   -0.4654 C.ar      1 <0>        -0.2010
     34 C24        -0.3355   -8.5662   -0.3091 C.ar      1 <0>         0.1542
     35 O5          0.6872   -9.4288   -0.0706 O.3       1 <0>        -0.3246
     36 C25         0.3597  -10.8176    0.0073 C.3       1 <0>         0.0167
     37 H2          2.8481   -8.6356   -1.1002 H         1 <0>         0.1278
     38 H3          2.8746   -8.1502   -2.8294 H         1 <0>         0.1239
     39 H4          1.3316   -8.6582   -2.0627 H         1 <0>         0.1200
     40 H5          1.0816   -5.0014   -2.2474 H         1 <0>         0.1221
     41 H6          0.3062   -6.5486   -2.7286 H         1 <0>         0.1232
     42 H7          1.8492   -6.0407   -3.4953 H         1 <0>         0.1275
     43 H8          0.6494   -4.6326   -0.4419 H         1 <0>         0.0991
     44 H9          0.8111   -5.1904    1.2579 H         1 <0>         0.1170
     45 H10         3.4742   -5.3057    0.0177 H         1 <0>         0.4107
     46 H11         5.0977   -4.5955   -0.1174 H         1 <0>         0.1215
     47 H12         7.3698   -3.6678   -0.0287 H         1 <0>         0.1353
     48 H13         7.7562   -1.4165    0.8835 H         1 <0>         0.1382
     49 H14         5.8738   -0.0710    1.7078 H         1 <0>         0.1497
     50 H15         2.5115   -1.2989    2.2822 H         1 <0>         0.4442
     51 H16         1.0564   -0.3840    2.7094 H         1 <0>         0.1592
     52 H17        -0.9045    0.9412    3.3751 H         1 <0>         0.1692
     53 H18         0.9897    4.4949    1.9666 H         1 <0>         0.1743
     54 H19        -0.9406   -5.2675   -0.6996 H         1 <0>         0.1404
     55 H20        -3.2300   -6.1247   -0.9843 H         1 <0>         0.1398
     56 H21        -3.6714   -8.5413   -0.8300 H         1 <0>         0.1401
     57 H22        -1.8222  -10.1068   -0.3970 H         1 <0>         0.1422
     58 H23         1.2727  -11.3992    0.2028 H         1 <0>         0.1136
     59 H24        -0.0858  -11.1432   -0.9443 H         1 <0>         0.0657
     60 H25        -0.3599  -10.9794    0.8234 H         1 <0>         0.0679
     61 H26         2.9870   -6.2335   -1.3941 H         1 <0>         0.4310
@<TRIPOS>BOND
     1    1    2 1
     2    1   37 1
     3    1   38 1
     4    1   39 1
     5    2    3 1
     6    2    4 1
     7    2   61 1
     8    3   40 1
     9    3   41 1
    10    3   42 1
    11    4    5 1
    12    4    6 1
    13    4   29 1
    14    6    7 1
    15    6   43 1
    16    6   44 1
    17    7    8 am
    18    7   45 1
    19    8    9 2
    20    8   10 1
    21   10   15 ar
    22   10   11 ar
    23   11   12 ar
    24   11   46 1
    25   12   13 ar
    26   12   47 1
    27   13   14 ar
    28   13   48 1
    29   14   15 ar
    30   14   49 1
    31   15   16 1
    32   16   17 am
    33   16   50 1
    34   17   18 2
    35   17   19 1
    36   19   24 ar
    37   19   20 ar
    38   20   21 ar
    39   20   51 1
    40   21   22 ar
    41   21   52 1
    42   22   23 ar
    43   22   26 1
    44   23   24 ar
    45   23   53 1
    46   24   25 1
    47   26   27 2
    48   26   28 1
    49   29   34 ar
    50   29   30 ar
    51   30   31 ar
    52   30   54 1
    53   31   32 ar
    54   31   55 1
    55   32   33 ar
    56   32   56 1
    57   33   34 ar
    58   33   57 1
    59   34   35 1
    60   35   36 1
    61   36   58 1
    62   36   59 1
    63   36   60 1
@<TRIPOS>MOLECULE
ZINC39653241
   73    76     0     0     0
SMALL
USER_CHARGES

@<TRIPOS>ATOM
      1 C1         -4.9820   -2.9791   -0.6758 C.3       1 <0>        -0.1543
      2 C2         -4.1233   -3.5586    0.4501 C.3       1 <0>         0.0545
      3 O1         -4.4400   -2.8998    1.6780 O.3       1 <0>        -0.3024
      4 C3         -3.7606   -3.2995    2.7862 C.ar      1 <0>         0.1087
      5 C4         -2.8061   -4.2996    2.6924 C.ar      1 <0>        -0.1670
      6 C5         -2.1160   -4.7044    3.8198 C.ar      1 <0>        -0.0906
      7 C6         -2.3761   -4.1137    5.0424 C.ar      1 <0>        -0.1103
      8 C7         -3.3274   -3.1157    5.1430 C.ar      1 <0>        -0.1713
      9 C8         -4.0183   -2.7010    4.0157 C.ar      1 <0>         0.1051
     10 O2         -4.9502   -1.7152    4.1118 O.3       1 <0>        -0.3039
     11 C9         -5.1620   -1.1466    5.4056 C.3       1 <0>         0.0249
     12 C10        -1.0783   -5.7922    3.7159 C.3       1 <0>        -0.0820
     13 C11         0.2863   -5.1683    3.4166 C.3       1 <0>         0.1214
     14 N1          1.2952   -6.2258    3.3156 N.am      1 <0>        -0.7309
     15 C12         2.5792   -5.9096    3.0554 C.2       1 <0>         0.5122
     16 O3          2.8995   -4.7496    2.9048 O.2       1 <0>        -0.5094
     17 C13         3.6169   -6.9974    2.9515 C.3       1 <0>        -0.1154
     18 H1          3.1665   -7.9160    2.5754 H         1 <0>         0.1192
     19 C14         4.7749   -6.5502    2.0314 C.3       1 <0>         0.1028
     20 N2          5.7982   -6.0062    2.9549 N.am      1 <0>        -0.6106
     21 C15         5.7672   -6.9222    4.1203 C.3       1 <0>         0.1096
     22 C16         4.2729   -7.2442    4.3204 C.3       1 <0>        -0.0735
     23 C17         4.0976   -8.7018    4.7355 C.3       1 <0>        -0.1330
     24 C18         4.7064   -8.9090    6.1251 C.3       1 <0>        -0.0104
     25 N3          4.0441   -8.0218    7.0889 N.4       1 <0>        -0.5043
     26 C19         4.2962   -6.6199    6.7342 C.3       1 <0>        -0.0095
     27 C20         3.6699   -6.3159    5.3703 C.3       1 <0>        -0.1474
     28 C21         6.5806   -4.9236    2.7757 C.2       1 <0>         0.5829
     29 O4          7.4484   -4.6602    3.5851 O.2       1 <0>        -0.5045
     30 C22         6.3835   -4.0563    1.5947 C.ar      1 <0>        -0.0806
     31 C23         6.0383   -4.6164    0.3635 C.ar      1 <0>        -0.0965
     32 C24         5.8553   -3.8017   -0.7344 C.ar      1 <0>        -0.0912
     33 C25         6.0137   -2.4319   -0.6174 C.ar      1 <0>        -0.0909
     34 C26         6.3558   -1.8705    0.5998 C.ar      1 <0>        -0.0747
     35 C27         6.5361   -2.6737    1.7072 C.ar      1 <0>        -0.1306
     36 C28         6.9030   -2.0599    3.0337 C.3       1 <0>         0.5059
     37 F1          6.9972   -0.6710    2.8947 F         1 <0>        -0.1770
     38 F2          5.9184   -2.3683    3.9785 F         1 <0>        -0.1782
     39 F3          8.1339   -2.5705    3.4593 F         1 <0>        -0.1531
     40 H2         -4.7404   -3.4816   -1.6125 H         1 <0>         0.0801
     41 H3         -6.0361   -3.1306   -0.4436 H         1 <0>         0.0686
     42 H4         -4.7812   -1.9122   -0.7736 H         1 <0>         0.0683
     43 H5         -4.3241   -4.6255    0.5478 H         1 <0>         0.0611
     44 H6         -3.0692   -3.4071    0.2178 H         1 <0>         0.0604
     45 H7         -2.6015   -4.7631    1.7386 H         1 <0>         0.1346
     46 H8         -1.8351   -4.4329    5.9210 H         1 <0>         0.1238
     47 H9         -3.5290   -2.6562    6.0994 H         1 <0>         0.1373
     48 H10        -5.4869   -1.9251    6.0959 H         1 <0>         0.0561
     49 H11        -4.2321   -0.7067    5.7658 H         1 <0>         0.0559
     50 H12        -5.9286   -0.3743    5.3420 H         1 <0>         0.1044
     51 H13        -1.0292   -6.3387    4.6577 H         1 <0>         0.0774
     52 H14        -1.3489   -6.4769    2.9122 H         1 <0>         0.0799
     53 H15         0.2373   -4.6219    2.4747 H         1 <0>         0.0740
     54 H16         0.5570   -4.4836    4.2203 H         1 <0>         0.0726
     55 H17         1.0390   -7.1536    3.4360 H         1 <0>         0.3991
     56 H18         5.1740   -7.4024    1.4813 H         1 <0>         0.0939
     57 H19         4.4356   -5.7770    1.3421 H         1 <0>         0.1063
     58 H20         6.3258   -7.8327    3.9035 H         1 <0>         0.0880
     59 H21         6.1717   -6.4279    5.0035 H         1 <0>         0.0898
     60 H22         3.0359   -8.9471    4.7631 H         1 <0>         0.0981
     61 H23         4.6023   -9.3479    4.0171 H         1 <0>         0.1224
     62 H24         4.5678   -9.9458    6.4314 H         1 <0>         0.1405
     63 H25         5.7715   -8.6794    6.0928 H         1 <0>         0.1332
     64 H26         3.0504   -8.1968    7.0774 H         1 <0>         0.4274
     65 H27         3.8551   -5.9693    7.4893 H         1 <0>         0.1389
     66 H28         5.3710   -6.4448    6.6873 H         1 <0>         0.1346
     67 H29         3.8729   -5.2797    5.0995 H         1 <0>         0.1233
     68 H30         2.5927   -6.4749    5.4209 H         1 <0>         0.0966
     69 H31         5.9150   -5.6854    0.2707 H         1 <0>         0.1392
     70 H32         5.5882   -4.2337   -1.6875 H         1 <0>         0.1424
     71 H33         5.8701   -1.7985   -1.4802 H         1 <0>         0.1447
     72 H34         6.4783   -0.8008    0.6844 H         1 <0>         0.1487
     73 H35         4.4042   -8.2033    8.0138 H         1 <0>         0.4345
@<TRIPOS>BOND
     1    1    2 1
     2    1   40 1
     3    1   41 1
     4    1   42 1
     5    2    3 1
     6    2   43 1
     7    2   44 1
     8    3    4 1
     9    4    9 ar
    10    4    5 ar
    11    5    6 ar
    12    5   45 1
    13    6    7 ar
    14    6   12 1
    15    7    8 ar
    16    7   46 1
    17    8    9 ar
    18    8   47 1
    19    9   10 1
    20   10   11 1
    21   11   48 1
    22   11   49 1
    23   11   50 1
    24   12   13 1
    25   12   51 1
    26   12   52 1
    27   13   14 1
    28   13   53 1
    29   13   54 1
    30   14   15 am
    31   14   55 1
    32   15   16 2
    33   15   17 1
    34   17   18 1
    35   17   22 1
    36   17   19 1
    37   19   20 1
    38   19   56 1
    39   19   57 1
    40   20   21 1
    41   20   28 am
    42   21   22 1
    43   21   58 1
    44   21   59 1
    45   22   27 1
    46   22   23 1
    47   23   24 1
    48   23   60 1
    49   23   61 1
    50   24   25 1
    51   24   62 1
    52   24   63 1
    53   25   26 1
    54   25   64 1
    55   25   73 1
    56   26   27 1
    57   26   65 1
    58   26   66 1
    59   27   67 1
    60   27   68 1
    61   28   29 2
    62   28   30 1
    63   30   35 ar
    64   30   31 ar
    65   31   32 ar
    66   31   69 1
    67   32   33 ar
    68   32   70 1
    69   33   34 ar
    70   33   71 1
    71   34   35 ar
    72   34   72 1
    73   35   36 1
    74   36   37 1
    75   36   38 1
    76   36   39 1
@<TRIPOS>MOLECULE
ZINC20565922
   67    71     0     0     0
SMALL
USER_CHARGES

@<TRIPOS>ATOM
      1 C1         -0.0187    1.5258    0.0104 C.3       1 <0>        -0.1536
      2 C2          0.0021   -0.0041    0.0020 C.3       1 <0>        -0.1039
      3 C3          0.7421   -0.5109    1.2415 C.3       1 <0>        -0.1649
      4 C4         -1.4333   -0.5336    0.0129 C.3       1 <0>        -0.1361
      5 C5         -1.4157   -2.0577   -0.1212 C.3       1 <0>         0.0381
      6 H1         -0.7824   -2.4982    0.6489 H         1 <0>         0.1632
      7 C6         -2.8494   -2.6220   -0.0254 C.3       1 <0>        -0.1400
      8 H2         -3.6119   -1.8687   -0.2236 H         1 <0>         0.1772
      9 C7         -2.8826   -3.7978   -1.0413 C.3       1 <0>        -0.1209
     10 H3         -3.6773   -3.6944   -1.7800 H         1 <0>         0.1797
     11 C8         -3.0631   -5.0139   -0.1614 C.2       1 <0>         0.5316
     12 O1         -3.1350   -6.1584   -0.5545 O.2       1 <0>        -0.4374
     13 N1         -3.1305   -4.6304    1.1187 N.am      1 <0>        -0.5587
     14 C9         -3.0284   -3.2955    1.3165 C.2       1 <0>         0.5387
     15 O2         -3.0693   -2.7261    2.3860 O.2       1 <0>        -0.4269
     16 C10        -3.3083   -5.5785    2.2213 C.3       1 <0>         0.1011
     17 C11        -1.9386   -6.0427    2.7207 C.3       1 <0>        -0.0798
     18 C12        -2.1215   -7.0179    3.8549 C.ar      1 <0>        -0.0930
     19 C13        -2.1891   -6.5571    5.1566 C.ar      1 <0>        -0.1059
     20 C14        -2.3568   -7.4476    6.2006 C.ar      1 <0>        -0.1703
     21 C15        -2.4580   -8.8055    5.9434 C.ar      1 <0>         0.1072
     22 C16        -2.3903   -9.2693    4.6332 C.ar      1 <0>         0.1031
     23 C17        -2.2270   -8.3708    3.5910 C.ar      1 <0>        -0.1652
     24 O3         -2.4891  -10.6010    4.3757 O.3       1 <0>        -0.3031
     25 C18        -2.4112  -11.0047    3.0071 C.3       1 <0>         0.0263
     26 O4         -2.6225   -9.6829    6.9693 O.3       1 <0>        -0.3043
     27 C19        -2.6828   -9.1355    8.2879 C.3       1 <0>         0.0244
     28 C20        -1.4871   -3.8010   -1.6761 C.3       1 <0>         0.0964
     29 N2         -0.9376   -2.4527   -1.4727 N.4       1 <0>        -0.4903
     30 C21        -1.5443   -4.1745   -3.1303 C.ar      1 <0>        -0.1736
     31 C22        -2.1846   -3.6332   -4.2228 C.ar      1 <0>        -0.0803
     32 C23        -2.0410   -4.2185   -5.4702 C.ar      1 <0>         0.1026
     33 C24        -1.2524   -5.3479   -5.6137 C.ar      1 <0>        -0.0776
     34 C25        -0.6106   -5.8919   -4.5208 C.ar      1 <0>        -0.0901
     35 C26        -0.7499   -5.3091   -3.2635 C.ar      1 <0>         0.1622
     36 N3         -0.2095   -5.6682   -2.0255 N.am      1 <0>        -0.6303
     37 C27        -0.5955   -4.8329   -1.0418 C.2       1 <0>         0.5208
     38 O5         -0.2841   -4.8997    0.1286 O.2       1 <0>        -0.4367
     39 F1         -2.6687   -3.6895   -6.5432 F         1 <0>        -0.1159
     40 H4          1.0039    1.9031    0.0027 H         1 <0>         0.0686
     41 H5         -0.5459    1.8868   -0.8726 H         1 <0>         0.0623
     42 H6         -0.5289    1.8773    0.9072 H         1 <0>         0.0675
     43 H7          0.5123   -0.3556   -0.8948 H         1 <0>         0.0644
     44 H8          0.2319   -0.1594    2.1383 H         1 <0>         0.0723
     45 H9          0.7568   -1.6008    1.2356 H         1 <0>         0.0507
     46 H10         1.7647   -0.1336    1.2338 H         1 <0>         0.0719
     47 H11        -1.9156   -0.2570    0.9504 H         1 <0>         0.1281
     48 H12        -1.9862   -0.1019   -0.8214 H         1 <0>         0.1008
     49 H13        -3.8461   -5.0924    3.0353 H         1 <0>         0.1070
     50 H14        -3.8785   -6.4392    1.8720 H         1 <0>         0.1035
     51 H15        -1.4007   -6.5288    1.9067 H         1 <0>         0.0783
     52 H16        -1.3683   -5.1819    3.0700 H         1 <0>         0.0802
     53 H17        -2.1104   -5.4990    5.3584 H         1 <0>         0.1280
     54 H18        -2.4086   -7.0851    7.2166 H         1 <0>         0.1392
     55 H19        -2.1779   -8.7278    2.5729 H         1 <0>         0.1337
     56 H20        -1.4519  -10.6963    2.5914 H         1 <0>         0.0536
     57 H21        -2.5037  -12.0888    2.9423 H         1 <0>         0.1041
     58 H22        -3.2185  -10.5368    2.4438 H         1 <0>         0.0542
     59 H23        -1.7561   -8.6036    8.5032 H         1 <0>         0.0567
     60 H24        -3.5228   -8.4442    8.3562 H         1 <0>         0.0568
     61 H25        -2.8156   -9.9411    9.0100 H         1 <0>         0.1047
     62 H26        -1.3018   -1.8247   -2.1735 H         1 <0>         0.4407
     63 H27        -2.7990   -2.7526   -4.1070 H         1 <0>         0.1556
     64 H28        -1.1397   -5.8049   -6.5857 H         1 <0>         0.1643
     65 H29         0.0025   -6.7729   -4.6404 H         1 <0>         0.1573
     66 H30         0.3747   -6.4306   -1.8904 H         1 <0>         0.4401
     67 H31         0.0709   -2.4679   -1.4999 H         1 <0>         0.4417
@<TRIPOS>BOND
     1    1    2 1
     2    1   40 1
     3    1   41 1
     4    1   42 1
     5    2    3 1
     6    2    4 1
     7    2   43 1
     8    3   44 1
     9    3   45 1
    10    3   46 1
    11    4    5 1
    12    4   47 1
    13    4   48 1
    14    5    6 1
    15    5   29 1
    16    5    7 1
    17    7    8 1
    18    7   14 1
    19    7    9 1
    20    9   10 1
    21    9   11 1
    22    9   28 1
    23   11   12 2
    24   11   13 am
    25   13   14 am
    26   13   16 1
    27   14   15 2
    28   16   17 1
    29   16   49 1
    30   16   50 1
    31   17   18 1
    32   17   51 1
    33   17   52 1
    34   18   23 ar
    35   18   19 ar
    36   19   20 ar
    37   19   53 1
    38   20   21 ar
    39   20   54 1
    40   21   22 ar
    41   21   26 1
    42   22   23 ar
    43   22   24 1
    44   23   55 1
    45   24   25 1
    46   25   56 1
    47   25   57 1
    48   25   58 1
    49   26   27 1
    50   27   59 1
    51   27   60 1
    52   27   61 1
    53   28   37 1
    54   28   29 1
    55   28   30 1
    56   29   62 1
    57   29   67 1
    58   30   35 ar
    59   30   31 ar
    60   31   32 ar
    61   31   63 1
    62   32   33 ar
    63   32   39 1
    64   33   34 ar
    65   33   64 1
    66   34   35 ar
    67   34   65 1
    68   35   36 1
    69   36   37 am
    70   36   66 1
    71   37   38 2
@<TRIPOS>MOLECULE
ZINC64055364
   60    64     0     0     0
SMALL
USER_CHARGES

@<TRIPOS>ATOM
      1 C1         -0.0316    1.5193    0.0155 C.3       1 <0>        -0.1519
      2 C2         -0.0002   -0.0103    0.0033 C.3       1 <0>        -0.1006
      3 H1         -1.0201   -0.3948    0.0107 H         1 <0>         0.1138
      4 C3          0.7078   -0.4884   -1.2381 C.2       1 <0>         0.5345
      5 O1          1.8673   -0.8392   -1.1779 O.2       1 <0>        -0.4827
      6 N1          0.0527   -0.5260   -2.4153 N.am      1 <0>        -0.6673
      7 C4          0.7355   -0.8770   -3.5851 C.ar      1 <0>         0.1919
      8 C5          0.4060   -0.2725   -4.7912 C.ar      1 <0>        -0.1616
      9 C6          1.0818   -0.6212   -5.9441 C.ar      1 <0>         0.0011
     10 C7          2.0857   -1.5711   -5.8983 C.ar      1 <0>        -0.6879
     11 C8          2.4159   -2.1752   -4.6991 C.ar      1 <0>         0.0026
     12 C9          1.7480   -1.8265   -3.5416 C.ar      1 <0>        -0.1399
     13 S1          2.9455   -2.0131   -7.3714 S.o2      1 <0>         2.7080
     14 O2          3.4667   -3.3183   -7.1614 O.2       1 <0>        -0.9477
     15 O3          2.0801   -1.7038   -8.4552 O.2       1 <0>        -0.9489
     16 N2          4.2479   -0.9986   -7.5013 N.pl3     1 <0>        -1.0117
     17 C10         4.2550    0.3036   -8.1836 C.3       1 <0>         0.1175
     18 C11         5.6851    0.8724   -8.0705 C.3       1 <0>        -0.1296
     19 C12         6.5447   -0.3953   -7.8225 C.3       1 <0>        -0.1298
     20 C13         5.5906   -1.2489   -6.9464 C.3       1 <0>         0.1117
     21 S2          0.8822   -0.6087    1.4710 S.3       1 <0>        -0.1120
     22 C14        -0.1657   -0.0861    2.8564 C.3       1 <0>         0.2977
     23 H2          0.2805   -0.3866    3.8044 H         1 <0>         0.1637
     24 N3         -1.5177   -0.6544    2.7215 N.pl3     1 <0>        -0.5946
     25 N4         -2.3803    0.4469    2.6228 N.2       1 <0>        -0.1513
     26 C15        -1.6977    1.5595    2.6838 C.2       1 <0>         0.1970
     27 O4         -0.3659    1.3340    2.8250 O.3       1 <0>        -0.2976
     28 C16        -2.2723    2.8361    2.6135 C.2       1 <0>         0.1250
     29 C17        -3.6264    3.1457    2.4770 C.ar      1 <0>        -0.1288
     30 C18        -4.7817    2.3426    2.3714 C.ar      1 <0>        -0.0225
     31 C19        -6.0002    2.9286    2.2454 C.ar      1 <0>        -0.1389
     32 C20        -6.1443    4.3173    2.2170 C.ar      1 <0>         0.0467
     33 C21        -5.0780    5.1492    2.3135 C.ar      1 <0>        -0.2015
     34 C22        -3.7725    4.6100    2.4476 C.ar      1 <0>         0.3169
     35 N5         -2.5950    5.1934    2.5575 N.pl3     1 <0>        -0.5889
     36 C23        -1.5552    4.1667    2.6762 C.3       1 <0>         0.0837
     37 H3          0.9883    1.9037    0.0081 H         1 <0>         0.0879
     38 H4         -0.5618    1.8788   -0.8664 H         1 <0>         0.0749
     39 H5         -0.5437    1.8650    0.9134 H         1 <0>         0.0677
     40 H6         -0.8922   -0.3098   -2.4516 H         1 <0>         0.4152
     41 H7         -0.3782    0.4692   -4.8276 H         1 <0>         0.1369
     42 H8          0.8258   -0.1517   -6.8824 H         1 <0>         0.1473
     43 H9          3.2002   -2.9170   -4.6667 H         1 <0>         0.1469
     44 H10         2.0099   -2.2949   -2.6043 H         1 <0>         0.1490
     45 H11         3.9896    0.1738   -9.2328 H         1 <0>         0.0766
     46 H12         3.5483    0.9788   -7.7011 H         1 <0>         0.0649
     47 H13         5.9797    1.3627   -8.9984 H         1 <0>         0.0847
     48 H14         5.7610    1.5605   -7.2286 H         1 <0>         0.0759
     49 H15         6.7758   -0.9002   -8.7605 H         1 <0>         0.0803
     50 H16         7.4564   -0.1488   -7.2784 H         1 <0>         0.0858
     51 H17         5.6372   -0.9268   -5.9061 H         1 <0>         0.0684
     52 H18         5.8443   -2.3057   -7.0289 H         1 <0>         0.0869
     53 H19        -1.7605   -1.5934    2.7041 H         1 <0>         0.4719
     54 H20        -4.6972    1.2660    2.3905 H         1 <0>         0.1613
     55 H21        -6.8789    2.3058    2.1649 H         1 <0>         0.1579
     56 H22        -7.1327    4.7405    2.1149 H         1 <0>         0.1631
     57 H23        -5.2220    6.2193    2.2887 H         1 <0>         0.1633
     58 H24        -1.0329    4.2670    3.6277 H         1 <0>         0.1818
     59 H25        -0.8500    4.2523    1.8495 H         1 <0>         0.1779
     60 H26        -2.4413    6.1511    2.5626 H         1 <0>         0.4574
@<TRIPOS>BOND
     1    1    2 1
     2    1   37 1
     3    1   38 1
     4    1   39 1
     5    2    3 1
     6    2    4 1
     7    2   21 1
     8    4    5 2
     9    4    6 am
    10    6    7 1
    11    6   40 1
    12    7   12 ar
    13    7    8 ar
    14    8    9 ar
    15    8   41 1
    16    9   10 ar
    17    9   42 1
    18   10   11 ar
    19   10   13 1
    20   11   12 ar
    21   11   43 1
    22   12   44 1
    23   13   14 2
    24   13   15 2
    25   13   16 1
    26   16   20 1
    27   16   17 1
    28   17   18 1
    29   17   45 1
    30   17   46 1
    31   18   19 1
    32   18   47 1
    33   18   48 1
    34   19   20 1
    35   19   49 1
    36   19   50 1
    37   20   51 1
    38   20   52 1
    39   21   22 1
    40   22   23 1
    41   22   27 1
    42   22   24 1
    43   24   25 1
    44   24   53 1
    45   25   26 2
    46   26   27 1
    47   26   28 1
    48   28   36 1
    49   28   29 2
    50   29   34 ar
    51   29   30 ar
    52   30   31 ar
    53   30   54 1
    54   31   32 ar
    55   31   55 1
    56   32   33 ar
    57   32   56 1
    58   33   34 ar
    59   33   57 1
    60   34   35 2
    61   35   36 1
    62   35   60 1
    63   36   58 1
    64   36   59 1
@<TRIPOS>MOLECULE
ZINC11979394
   77    80     0     0     0
SMALL
USER_CHARGES
1-isobutyl-4-oxo-N-[(2R)-2-phenyl-2-(1-piperidyl)ethyl]-5-(piperidine-1-carbonyl)pyridine-3-carboxamide
@<TRIPOS>ATOM
      1 C1         -7.4114    1.9705    2.4859 C.3       1 <0>        -0.1489
      2 C2         -6.3941    0.8370    2.6315 C.3       1 <0>        -0.1150
      3 C3         -6.7344    0.0020    3.8676 C.3       1 <0>        -0.1636
      4 C4         -6.4396   -0.0521    1.3871 C.3       1 <0>         0.0814
      5 N1         -5.3853   -1.0657    1.4723 N.pl3     1 <0>        -0.4587
      6 C5         -4.1767   -0.7724    0.9651 C.2       1 <0>         0.1802
      7 C6         -3.1411   -1.6804    1.0055 C.2       1 <0>        -0.2921
      8 C7         -3.3841   -2.9894    1.6345 C.2       1 <0>         0.4257
      9 O1         -2.5066   -3.8333    1.7051 O.2       1 <0>        -0.4284
     10 C8         -4.7317   -3.2365    2.1743 C.2       1 <0>        -0.2581
     11 C9         -5.6747   -2.2385    2.0596 C.2       1 <0>         0.1428
     12 C10        -5.0630   -4.5178    2.8208 C.2       1 <0>         0.5733
     13 O2         -4.2175   -5.1119    3.4621 O.2       1 <0>        -0.5028
     14 N2         -6.3031   -5.0319    2.7017 N.am      1 <0>        -0.6105
     15 C11        -7.3541   -4.2937    1.9880 C.3       1 <0>         0.0780
     16 C12        -7.9483   -5.2111    0.9085 C.3       1 <0>        -0.1353
     17 C13        -8.4252   -6.5119    1.5586 C.3       1 <0>        -0.1220
     18 C14        -7.2353   -7.2302    2.1990 C.3       1 <0>        -0.1371
     19 C15        -6.6315   -6.3383    3.2883 C.3       1 <0>         0.1123
     20 C16        -1.8227   -1.3478    0.4391 C.2       1 <0>         0.5821
     21 O3         -0.9179   -2.1591    0.4876 O.2       1 <0>        -0.4751
     22 N3         -1.6191   -0.1445   -0.1328 N.am      1 <0>        -0.7596
     23 C17        -0.3078    0.1862   -0.6960 C.3       1 <0>         0.1019
     24 C18        -0.3450    1.6005   -1.2787 C.3       1 <0>         0.0746
     25 H1         -0.5038    2.3202   -0.4757 H         1 <0>         0.1489
     26 C19         0.9633    1.8952   -1.9660 C.ar      1 <0>        -0.1457
     27 C20         1.6455    3.0635   -1.6820 C.ar      1 <0>        -0.0844
     28 C21         2.8477    3.3318   -2.3092 C.ar      1 <0>        -0.1107
     29 C22         3.3633    2.4361   -3.2273 C.ar      1 <0>        -0.0820
     30 C23         2.6786    1.2703   -3.5152 C.ar      1 <0>        -0.1098
     31 C24         1.4785    1.0000   -2.8848 C.ar      1 <0>        -0.1085
     32 C25        -1.1575    0.9033   -3.4499 C.3       1 <0>        -0.0184
     33 C26        -2.3783    0.9138   -4.3727 C.3       1 <0>        -0.1447
     34 C27        -2.7046    2.3580   -4.7630 C.3       1 <0>        -0.1386
     35 C28        -2.9494    3.1786   -3.4936 C.3       1 <0>        -0.1449
     36 C29        -1.7120    3.1024   -2.5963 C.3       1 <0>        -0.0043
     37 H2         -8.4109    1.5498    2.3763 H         1 <0>         0.0647
     38 H3         -7.3790    2.6039    3.3724 H         1 <0>         0.0693
     39 H4         -7.1690    2.5654    1.6053 H         1 <0>         0.0591
     40 H5         -5.3946    1.2577    2.7411 H         1 <0>         0.0796
     41 H6         -7.7339   -0.4187    3.7580 H         1 <0>         0.0644
     42 H7         -6.0097   -0.8055    3.9713 H         1 <0>         0.0563
     43 H8         -6.7019    0.6354    4.7541 H         1 <0>         0.0706
     44 H9         -6.2850    0.5592    0.4980 H         1 <0>         0.1036
     45 H10        -7.4111   -0.5425    1.3263 H         1 <0>         0.1086
     46 H11        -4.0145    0.1941    0.5114 H         1 <0>         0.1580
     47 H12        -6.6681   -2.4029    2.4501 H         1 <0>         0.1891
     48 H13        -8.1339   -3.9981    2.6899 H         1 <0>         0.0778
     49 H14        -6.9251   -3.4074    1.5207 H         1 <0>         0.0920
     50 H15        -7.1885   -5.4358    0.1600 H         1 <0>         0.0688
     51 H16        -8.7922   -4.7116    0.4325 H         1 <0>         0.0766
     52 H17        -8.8720   -7.1545    0.8000 H         1 <0>         0.0695
     53 H18        -9.1670   -6.2845    2.3243 H         1 <0>         0.0669
     54 H19        -6.4822   -7.4359    1.4383 H         1 <0>         0.0680
     55 H20        -7.5716   -8.1679    2.6415 H         1 <0>         0.0804
     56 H21        -5.7255   -6.8014    3.6792 H         1 <0>         0.0967
     57 H22        -7.3535   -6.2060    4.0941 H         1 <0>         0.0719
     58 H23        -2.3407    0.5025   -0.1714 H         1 <0>         0.3827
     59 H24        -0.0610   -0.5251   -1.4842 H         1 <0>         0.0975
     60 H25         0.4476    0.1361    0.0881 H         1 <0>         0.1185
     61 H26         1.2408    3.7650   -0.9675 H         1 <0>         0.1328
     62 H27         3.3829    4.2424   -2.0840 H         1 <0>         0.1377
     63 H28         4.3013    2.6470   -3.7193 H         1 <0>         0.1370
     64 H29         3.0814    0.5705   -4.2325 H         1 <0>         0.1377
     65 H30         0.9435    0.0892   -3.1097 H         1 <0>         0.1318
     66 H31        -0.3021    1.3289   -3.9745 H         1 <0>         0.1420
     67 H32        -0.9312   -0.1224   -3.1587 H         1 <0>         0.1283
     68 H33        -3.2307    0.4757   -3.8535 H         1 <0>         0.0850
     69 H34        -2.1612    0.3345   -5.2701 H         1 <0>         0.1133
     70 H35        -3.5994    2.3739   -5.3852 H         1 <0>         0.0948
     71 H36        -1.8675    2.7838   -5.3162 H         1 <0>         0.0827
     72 H37        -3.8108    2.7761   -2.9606 H         1 <0>         0.0851
     73 H38        -3.1402    4.2174   -3.7629 H         1 <0>         0.1134
     74 H39        -1.8884    3.6739   -1.6851 H         1 <0>         0.1280
     75 H40        -0.8539    3.5177   -3.1249 H         1 <0>         0.1333
     76 N4         -1.4663    1.6897   -2.2366 N.4       1 <0>        -0.3910
     77 H41        -2.3114    1.3062   -1.7973 H         1 <0>         0.4152
@<TRIPOS>BOND
     1    1    2 1
     2    1   37 1
     3    1   38 1
     4    1   39 1
     5    2    3 1
     6    2    4 1
     7    2   40 1
     8    3   41 1
     9    3   42 1
    10    3   43 1
    11    4    5 1
    12    4   44 1
    13    4   45 1
    14    5   11 1
    15    5    6 1
    16    6    7 2
    17    6   46 1
    18    7    8 1
    19    7   20 1
    20    8    9 2
    21    8   10 1
    22   10   11 2
    23   10   12 1
    24   11   47 1
    25   12   13 2
    26   12   14 am
    27   14   19 1
    28   14   15 1
    29   15   16 1
    30   15   48 1
    31   15   49 1
    32   16   17 1
    33   16   50 1
    34   16   51 1
    35   17   18 1
    36   17   52 1
    37   17   53 1
    38   18   19 1
    39   18   54 1
    40   18   55 1
    41   19   56 1
    42   19   57 1
    43   20   21 2
    44   20   22 am
    45   22   23 1
    46   22   58 1
    47   23   24 1
    48   23   59 1
    49   23   60 1
    50   24   25 1
    51   24   26 1
    52   24   76 1
    53   26   31 ar
    54   26   27 ar
    55   27   28 ar
    56   27   61 1
    57   28   29 ar
    58   28   62 1
    59   29   30 ar
    60   29   63 1
    61   30   31 ar
    62   30   64 1
    63   31   65 1
    64   32   33 1
    65   32   66 1
    66   32   67 1
    67   32   76 1
    68   33   34 1
    69   33   68 1
    70   33   69 1
    71   34   35 1
    72   34   70 1
    73   34   71 1
    74   35   36 1
    75   35   72 1
    76   35   73 1
    77   36   74 1
    78   36   75 1
    79   36   76 1
    80   76   77 1
@<TRIPOS>MOLECULE
ZINC22921857
   62    66     0     0     0
SMALL
USER_CHARGES
N-(4-fluorophenyl)-2-[4-[2-[(5S)-5-(2-furyl)-3-(2-thienyl)-4,5-dihydropyrazol-1-yl]-2-oxo-ethyl]piperazin-1-yl]acetamide
@<TRIPOS>ATOM
      1 C1          2.3858   -7.4114    7.4438 C.2       1 <0>        -0.2109
      2 C2          1.0201   -7.4175    7.0779 C.2       1 <0>        -0.1782
      3 C3          0.9560   -7.8872    5.8191 C.2       1 <0>        -0.0394
      4 O1          2.2028   -8.1698    5.4076 O.3       1 <0>        -0.1708
      5 C4          3.0745   -7.8778    6.3866 C.2       1 <0>        -0.0292
      6 C5         -0.3021   -8.0713    5.0101 C.3       1 <0>         0.1960
      7 H1         -1.0626   -7.4243    5.4716 H         1 <0>         0.1290
      8 C6         -0.6866   -9.5622    4.9372 C.3       1 <0>        -0.1314
      9 C7         -0.6299   -9.8817    3.4605 C.2       1 <0>         0.2124
     10 N1         -0.2953   -8.8219    2.8032 N.2       1 <0>        -0.2432
     11 N2         -0.0717   -7.7038    3.6040 N.am      1 <0>        -0.4617
     12 C8          0.2909   -6.4832    3.1623 C.2       1 <0>         0.5576
     13 O2          0.4539   -5.5762    3.9514 O.2       1 <0>        -0.4991
     14 C9          0.4938   -6.2451    1.6881 C.3       1 <0>         0.0494
     15 N3          0.8823   -4.8457    1.4671 N.3       1 <0>        -0.5270
     16 C10         1.3177   -4.6328    0.0798 C.3       1 <0>         0.0270
     17 C11         1.7880   -3.1861   -0.0882 C.3       1 <0>         0.0031
     18 N4          0.6909   -2.2733    0.2624 N.4       1 <0>        -0.3906
     19 C12         0.2555   -2.4862    1.6498 C.3       1 <0>        -0.0024
     20 C13        -0.2147   -3.9329    1.8177 C.3       1 <0>         0.0219
     21 C14         1.0794   -0.8739    0.0414 C.3       1 <0>        -0.0254
     22 C15        -0.1334    0.0109    0.1729 C.2       1 <0>         0.5023
     23 O3         -1.2150   -0.4763    0.4258 O.2       1 <0>        -0.5157
     24 N5         -0.0162    1.3436    0.0094 N.am      1 <0>        -0.6578
     25 C16        -1.1586    2.1532    0.0189 C.ar      1 <0>         0.1154
     26 C17        -2.3579    1.6692   -0.4865 C.ar      1 <0>        -0.0879
     27 C18        -3.4848    2.4677   -0.4719 C.ar      1 <0>        -0.1347
     28 C19        -3.4165    3.7539    0.0366 C.ar      1 <0>         0.1031
     29 C20        -2.2201    4.2404    0.5362 C.ar      1 <0>        -0.1324
     30 C21        -1.0923    3.4432    0.5283 C.ar      1 <0>        -0.1024
     31 F1         -4.5187    4.5351    0.0457 F         1 <0>        -0.1303
     32 C22        -0.9171  -11.1912    2.8660 C.2       1 <0>        -0.1402
     33 C23        -0.8953  -11.5689    1.5345 C.2       1 <0>        -0.0901
     34 C24        -1.2027  -12.8720    1.2197 C.2       1 <0>        -0.1704
     35 C25        -1.5253  -13.7384    2.2153 C.2       1 <0>        -0.1457
     36 S1         -1.3937  -12.7124    3.6701 S.3       1 <0>         0.1115
     37 H2          2.7970   -7.0936    8.3905 H         1 <0>         0.1528
     38 H3          0.1881   -7.1044    7.6912 H         1 <0>         0.1508
     39 H4          4.1462   -8.0014    6.3357 H         1 <0>         0.2051
     40 H5          0.0348  -10.1557    5.5180 H         1 <0>         0.1189
     41 H6         -1.6953   -9.7015    5.3533 H         1 <0>         0.1229
     42 H7          1.2874   -6.9093    1.3153 H         1 <0>         0.1240
     43 H8         -0.4426   -6.4550    1.1505 H         1 <0>         0.0848
     44 H9          2.1459   -5.3181   -0.1538 H         1 <0>         0.1282
     45 H10         0.4770   -4.8276   -0.6024 H         1 <0>         0.0653
     46 H11         2.6466   -3.0004    0.5739 H         1 <0>         0.1395
     47 H12         2.0874   -3.0168   -1.1330 H         1 <0>         0.1403
     48 H13         1.0962   -2.2913    2.3319 H         1 <0>         0.1343
     49 H14        -0.5727   -1.8010    1.8835 H         1 <0>         0.1486
     50 H15        -1.0729   -4.1197    1.1555 H         1 <0>         0.0604
     51 H16        -0.5138   -4.1033    2.8624 H         1 <0>         0.1374
     52 H17         1.8308   -0.5796    0.7889 H         1 <0>         0.1610
     53 H18         1.5042   -0.7662   -0.9675 H         1 <0>         0.1650
     54 H19         0.9769    1.7952   -0.1315 H         1 <0>         0.4485
     55 H20        -2.4106    0.6676   -0.8869 H         1 <0>         0.1411
     56 H21        -4.4189    2.0901   -0.8607 H         1 <0>         0.1444
     57 H22        -2.1690    5.2437    0.9327 H         1 <0>         0.1472
     58 H23        -0.1595    3.8228    0.9183 H         1 <0>         0.1408
     59 H24        -0.6403  -10.8585    0.7620 H         1 <0>         0.1416
     60 H25        -1.1918  -13.2021    0.1915 H         1 <0>         0.1439
     61 H26        -1.7935  -14.7822    2.1446 H         1 <0>         0.1957
     62 H27        -0.1600   -2.4950   -0.3986 H         1 <0>         0.4457
@<TRIPOS>BOND
     1    1    5 2
     2    1    2 1
     3    1   37 1
     4    2    3 2
     5    2   38 1
     6    3    4 1
     7    3    6 1
     8    4    5 1
     9    5   39 1
    10    6    7 1
    11    6   11 1
    12    6    8 1
    13    8    9 1
    14    8   40 1
    15    8   41 1
    16    9   10 2
    17    9   32 1
    18   10   11 1
    19   11   12 am
    20   12   13 2
    21   12   14 1
    22   14   15 1
    23   14   42 1
    24   14   43 1
    25   15   20 1
    26   15   16 1
    27   16   17 1
    28   16   44 1
    29   16   45 1
    30   17   18 1
    31   17   46 1
    32   17   47 1
    33   18   19 1
    34   18   21 1
    35   18   62 1
    36   19   20 1
    37   19   48 1
    38   19   49 1
    39   20   50 1
    40   20   51 1
    41   21   22 1
    42   21   52 1
    43   21   53 1
    44   22   23 2
    45   22   24 am
    46   24   25 1
    47   24   54 1
    48   25   30 ar
    49   25   26 ar
    50   26   27 ar
    51   26   55 1
    52   27   28 ar
    53   27   56 1
    54   28   29 ar
    55   28   31 1
    56   29   30 ar
    57   29   57 1
    58   30   58 1
    59   32   36 1
    60   32   33 2
    61   33   34 1
    62   33   59 1
    63   34   35 2
    64   34   60 1
    65   35   36 1
    66   35   61 1
@<TRIPOS>MOLECULE
ZINC02916562
   48    51     0     0     0
SMALL
USER_CHARGES

@<TRIPOS>ATOM
      1 C1         -0.0173    1.4248    0.0099 C.3       1 <0>         0.0266
      2 O1          0.0021   -0.0041    0.0020 O.3       1 <0>        -0.3029
      3 C2          0.6066   -0.6079   -1.0571 C.ar      1 <0>         0.0683
      4 C3          1.1727    0.1595   -2.0619 C.ar      1 <0>        -0.1090
      5 C4          1.7869   -0.4531   -3.1381 C.ar      1 <0>        -0.1363
      6 C5          1.8378   -1.8370   -3.2144 C.ar      1 <0>         0.1633
      7 C6          1.2723   -2.6088   -2.2107 C.ar      1 <0>        -0.2619
      8 C7          0.6614   -1.9963   -1.1285 C.ar      1 <0>         0.1579
      9 O2          0.1116   -2.7512   -0.1400 O.3       1 <0>        -0.2982
     10 C8          0.2050   -4.1703   -0.2792 C.3       1 <0>         0.0231
     11 O3          2.4421   -2.4374   -4.2743 O.3       1 <0>        -0.3109
     12 C9          2.4580   -3.8662   -4.2882 C.3       1 <0>         0.0255
     13 C10         2.4015    0.3839   -4.2302 C.3       1 <0>         0.2118
     14 H1          2.8358   -0.2672   -4.9889 H         1 <0>         0.1201
     15 C11         3.4945    1.2820   -3.6365 C.3       1 <0>        -0.1414
     16 C12         3.9273    2.3260   -4.6720 C.3       1 <0>         0.1919
     17 H2          4.7306    2.9375   -4.2611 H         1 <0>         0.1278
     18 N1          2.7683    3.1817   -4.9936 N.pl3     1 <0>        -0.6928
     19 C13         1.5587    2.5281   -5.1829 C.2       1 <0>         0.4892
     20 N2          1.3752    1.2265   -4.8376 N.pl3     1 <0>        -0.4080
     21 N3          0.0567    0.9283   -5.1816 N.2       1 <0>        -0.0665
     22 N4         -0.4456    2.0090   -5.6853 N.2       1 <0>        -0.0308
     23 N5          0.4351    2.9577   -5.6844 N.2       1 <0>        -0.3656
     24 C14         4.4086    1.6312   -5.9197 C.ar      1 <0>        -0.0970
     25 C15         3.4952    1.1557   -6.8420 C.ar      1 <0>        -0.1055
     26 C16         3.9363    0.5184   -7.9865 C.ar      1 <0>        -0.0775
     27 C17         5.2916    0.3565   -8.2088 C.ar      1 <0>        -0.0917
     28 C18         6.2052    0.8322   -7.2860 C.ar      1 <0>        -0.0816
     29 C19         5.7636    1.4745   -6.1444 C.ar      1 <0>        -0.0971
     30 I1          5.9607   -0.6100   -9.9430 I         1 <0>        -0.0356
     31 H3          1.0053    1.8021    0.0021 H         1 <0>         0.0528
     32 H4         -0.5445    1.7859   -0.8732 H         1 <0>         0.0529
     33 H5         -0.5275    1.7763    0.9067 H         1 <0>         0.1040
     34 H6          1.1338    1.2373   -2.0046 H         1 <0>         0.1366
     35 H7          1.3121   -3.6864   -2.2702 H         1 <0>         0.1472
     36 H8          1.2542   -4.4629   -0.3220 H         1 <0>         0.0567
     37 H9         -0.2718   -4.6513    0.5748 H         1 <0>         0.1057
     38 H10        -0.2960   -4.4791   -1.1966 H         1 <0>         0.0573
     39 H11         2.9827   -4.2324   -3.4058 H         1 <0>         0.0577
     40 H12         1.4344   -4.2410   -4.2838 H         1 <0>         0.0582
     41 H13         2.9688   -4.2152   -5.1856 H         1 <0>         0.1047
     42 H14         3.1071    1.7878   -2.7521 H         1 <0>         0.0942
     43 H15         4.3530    0.6714   -3.3567 H         1 <0>         0.1184
     44 H16         2.8474    4.1456   -5.0679 H         1 <0>         0.4346
     45 H17         2.4368    1.2819   -6.6681 H         1 <0>         0.1220
     46 H18         3.2227    0.1467   -8.7068 H         1 <0>         0.1299
     47 H19         7.2637    0.7059   -7.4594 H         1 <0>         0.1343
     48 H20         6.4771    1.8503   -5.4260 H         1 <0>         0.1375
@<TRIPOS>BOND
     1    1    2 1
     2    1   31 1
     3    1   32 1
     4    1   33 1
     5    2    3 1
     6    3    8 ar
     7    3    4 ar
     8    4    5 ar
     9    4   34 1
    10    5    6 ar
    11    5   13 1
    12    6    7 ar
    13    6   11 1
    14    7    8 ar
    15    7   35 1
    16    8    9 1
    17    9   10 1
    18   10   36 1
    19   10   37 1
    20   10   38 1
    21   11   12 1
    22   12   39 1
    23   12   40 1
    24   12   41 1
    25   13   14 1
    26   13   20 1
    27   13   15 1
    28   15   16 1
    29   15   42 1
    30   15   43 1
    31   16   17 1
    32   16   18 1
    33   16   24 1
    34   18   19 1
    35   18   44 1
    36   19   23 2
    37   19   20 1
    38   20   21 1
    39   21   22 2
    40   22   23 1
    41   24   29 ar
    42   24   25 ar
    43   25   26 ar
    44   25   45 1
    45   26   27 ar
    46   26   46 1
    47   27   28 ar
    48   27   30 1
    49   28   29 ar
    50   28   47 1
    51   29   48 1
@<TRIPOS>MOLECULE
ZINC63314168
   64    69     0     0     0
SMALL
USER_CHARGES

@<TRIPOS>ATOM
      1 C1          0.0573    1.4558   -0.0772 C.3       1 <0>         0.0146
      2 O1          0.0625    0.0268   -0.0770 O.3       1 <0>        -0.3017
      3 C2          0.6648   -0.5879    0.9751 C.ar      1 <0>         0.1046
      4 C3          1.2335    0.2031    1.9886 C.ar      1 <0>        -0.0258
      5 C4          1.8496   -0.3283    3.0661 C.ar      1 <0>        -0.1565
      6 C5          1.9413   -1.7850    3.2072 C.ar      1 <0>         0.3146
      7 N1          2.4737   -2.5436    4.1326 N.pl3     1 <0>        -0.5694
      8 C6          2.2730   -3.9481    3.7584 C.3       1 <0>         0.0601
      9 C7          1.5257   -3.9245    2.4438 C.2       1 <0>         0.0551
     10 C8          1.3421   -2.6197    2.1402 C.ar      1 <0>        -0.1265
     11 C9          0.6916   -1.9418    1.0137 C.ar      1 <0>        -0.0951
     12 C10         1.0761   -5.1145    1.6358 C.3       1 <0>        -0.1030
     13 C11         2.2230   -5.5847    0.7388 C.3       1 <0>         0.1265
     14 N2          1.7860   -6.7415   -0.0466 N.am      1 <0>        -0.7335
     15 C12         2.6360   -7.3282   -0.9124 C.2       1 <0>         0.5697
     16 O2          3.7656   -6.8974   -1.0416 O.2       1 <0>        -0.5273
     17 C13         2.1956   -8.4940   -1.7040 C.ar      1 <0>        -0.1562
     18 C14         0.8960   -8.9869   -1.5610 C.ar      1 <0>        -0.0639
     19 C15         0.4885  -10.0741   -2.3013 C.ar      1 <0>        -0.1443
     20 C16         1.3687  -10.6815   -3.1903 C.ar      1 <0>         0.1709
     21 C17         2.6630  -10.1939   -3.3348 C.ar      1 <0>        -0.1472
     22 C18         3.0756   -9.1035   -2.6020 C.ar      1 <0>        -0.0323
     23 N3          0.9515  -11.7850   -3.9401 N.am      1 <0>        -0.5239
     24 C19         1.6921  -12.3693   -4.9040 C.2       1 <0>         0.5267
     25 O3          2.8095  -12.0580   -5.2566 O.2       1 <0>        -0.4392
     26 C20         0.8410  -13.4949   -5.4553 C.3       1 <0>         0.0930
     27 H1          0.6117  -13.3553   -6.5118 H         1 <0>         0.1482
     28 C21         1.5183  -14.8388   -5.1901 C.3       1 <0>        -0.0770
     29 C22         0.5139  -15.9617   -5.1906 C.ar      1 <0>        -0.0748
     30 C23         0.9983  -17.2412   -5.4471 C.ar      1 <0>        -0.1124
     31 C24         0.1502  -18.3275   -5.4534 C.ar      1 <0>        -0.1110
     32 C25        -1.1976  -18.1503   -5.2009 C.ar      1 <0>        -0.1111
     33 C26        -1.6831  -16.8834   -4.9512 C.ar      1 <0>        -0.1082
     34 C27        -0.8303  -15.7880   -4.9527 C.ar      1 <0>        -0.1022
     35 C28        -1.4429  -14.4276   -4.7072 C.3       1 <0>         0.1930
     36 N4         -0.3719  -13.4368   -4.6077 N.am      1 <0>        -0.6114
     37 C29        -0.2318  -12.3964   -3.7855 C.2       1 <0>         0.7119
     38 O4         -1.0799  -12.0413   -2.9908 O.2       1 <0>        -0.5255
     39 H2          1.0836    1.8228   -0.0720 H         1 <0>         0.0648
     40 H3         -0.4533    1.8171   -0.9699 H         1 <0>         0.1172
     41 H4         -0.4624    1.8174    0.8100 H         1 <0>         0.0646
     42 H5          1.1757    1.2781    1.9017 H         1 <0>         0.1677
     43 H6          2.2737    0.3172    3.8211 H         1 <0>         0.1699
     44 H7          3.2352   -4.4451    3.6348 H         1 <0>         0.1783
     45 H8          1.6808   -4.4583    4.5181 H         1 <0>         0.1784
     46 H9          0.2404   -2.5177    0.2192 H         1 <0>         0.1649
     47 H10         0.7864   -5.9219    2.3084 H         1 <0>         0.1184
     48 H11         0.2235   -4.8329    1.0178 H         1 <0>         0.1170
     49 H12         2.5127   -4.7773    0.0663 H         1 <0>         0.0808
     50 H13         3.0756   -5.8662    1.3568 H         1 <0>         0.0788
     51 H14         0.8848   -7.0852    0.0565 H         1 <0>         0.4056
     52 H15         0.2121   -8.5159   -0.8705 H         1 <0>         0.1324
     53 H16        -0.5157  -10.4559   -2.1911 H         1 <0>         0.1710
     54 H17         3.3440  -10.6683   -4.0259 H         1 <0>         0.1617
     55 H18         4.0795   -8.7226   -2.7180 H         1 <0>         0.1465
     56 H19         2.2618  -15.0238   -5.9654 H         1 <0>         0.1072
     57 H20         2.0150  -14.8038   -4.2205 H         1 <0>         0.0879
     58 H21         2.0507  -17.3843   -5.6430 H         1 <0>         0.1269
     59 H22         0.5376  -19.3152   -5.6555 H         1 <0>         0.1282
     60 H23        -1.8663  -18.9984   -5.1996 H         1 <0>         0.1296
     61 H24        -2.7354  -16.7426   -4.7530 H         1 <0>         0.1295
     62 H25        -2.0952  -14.1641   -5.5398 H         1 <0>         0.0960
     63 H26        -2.0166  -14.4462   -3.7806 H         1 <0>         0.1103
     64 H27         2.9255   -2.2295    4.9314 H         1 <0>         0.4574
@<TRIPOS>BOND
     1    1    2 1
     2    1   39 1
     3    1   40 1
     4    1   41 1
     5    2    3 1
     6    3   11 ar
     7    3    4 ar
     8    4    5 ar
     9    4   42 1
    10    5    6 ar
    11    5   43 1
    12    6   10 ar
    13    6    7 2
    14    7    8 1
    15    7   64 1
    16    8    9 1
    17    8   44 1
    18    8   45 1
    19    9   10 2
    20    9   12 1
    21   10   11 ar
    22   11   46 1
    23   12   13 1
    24   12   47 1
    25   12   48 1
    26   13   14 1
    27   13   49 1
    28   13   50 1
    29   14   15 am
    30   14   51 1
    31   15   16 2
    32   15   17 1
    33   17   22 ar
    34   17   18 ar
    35   18   19 ar
    36   18   52 1
    37   19   20 ar
    38   19   53 1
    39   20   21 ar
    40   20   23 1
    41   21   22 ar
    42   21   54 1
    43   22   55 1
    44   23   37 am
    45   23   24 am
    46   24   25 2
    47   24   26 1
    48   26   27 1
    49   26   36 1
    50   26   28 1
    51   28   29 1
    52   28   56 1
    53   28   57 1
    54   29   34 ar
    55   29   30 ar
    56   30   31 ar
    57   30   58 1
    58   31   32 ar
    59   31   59 1
    60   32   33 ar
    61   32   60 1
    62   33   34 ar
    63   33   61 1
    64   34   35 1
    65   35   36 1
    66   35   62 1
    67   35   63 1
    68   36   37 am
    69   37   38 2
@<TRIPOS>MOLECULE
ZINC63830596
   60    64     0     0     0
SMALL
USER_CHARGES

@<TRIPOS>ATOM
      1 C1         -0.0163    1.3482    0.0095 C.ar      1 <0>        -0.1497
      2 C2          1.1658    2.1014    0.0022 C.ar      1 <0>         0.0552
      3 C3          2.3912    1.5352   -0.0125 C.ar      1 <0>        -0.2099
      4 C4          2.5288    0.1198   -0.0218 C.ar      1 <0>         0.3280
      5 N1          3.5868   -0.6543   -0.0369 N.pl3     1 <0>        -0.5846
      6 C5          3.1432   -2.0528   -0.0408 C.3       1 <0>         0.0603
      7 C6          1.6315   -2.0084   -0.0255 C.2       1 <0>         0.0696
      8 C7          1.2951   -0.6984   -0.0144 C.ar      1 <0>        -0.1660
      9 C8          0.0021   -0.0041    0.0020 C.ar      1 <0>        -0.0132
     10 C9          0.6905   -3.1856   -0.0239 C.3       1 <0>        -0.1057
     11 C10         0.4565   -3.6534   -1.4617 C.3       1 <0>         0.1268
     12 N2         -0.4583   -4.7977   -1.4602 N.am      1 <0>        -0.7295
     13 C11        -0.8107   -5.3803   -2.6233 C.2       1 <0>         0.5419
     14 O1         -0.3706   -4.9572   -3.6712 O.2       1 <0>        -0.5132
     15 C12        -1.7517   -6.5574   -2.6217 C.3       1 <0>        -0.1639
     16 S1         -2.0292   -7.1120   -4.3263 S.3       1 <0>         0.1113
     17 C13        -3.1342   -8.4739   -4.1569 C.2       1 <0>         0.3753
     18 N3         -3.5288   -8.8125   -2.9541 N.2       1 <0>        -0.5434
     19 C14        -4.3770   -9.8480   -2.7530 C.ar      1 <0>         0.1847
     20 C15        -4.7992  -10.2102   -1.4709 C.ar      1 <0>        -0.1107
     21 C16        -5.6638  -11.2713   -1.3150 C.ar      1 <0>         0.0153
     22 C17        -6.1206  -11.9853   -2.4175 C.ar      1 <0>        -0.1348
     23 C18        -5.7216  -11.6498   -3.6809 C.ar      1 <0>        -0.0195
     24 C19        -4.8470  -10.5800   -3.8674 C.ar      1 <0>        -0.2023
     25 C20        -4.3883  -10.1784   -5.2038 C.2       1 <0>         0.5565
     26 O2         -4.7582  -10.7694   -6.2018 O.2       1 <0>        -0.4972
     27 N4         -3.5441   -9.1242   -5.2857 N.am      1 <0>        -0.5221
     28 C21        -3.0616   -8.6799   -6.5957 C.3       1 <0>         0.0907
     29 C22        -1.7700   -9.4233   -6.9424 C.3       1 <0>         0.0622
     30 H1         -1.9470  -10.4986   -6.9627 H         1 <0>         0.0811
     31 C23        -1.2233   -8.9424   -8.3102 C.3       1 <0>        -0.1464
     32 C24         0.2856   -9.2772   -8.1587 C.3       1 <0>        -0.1548
     33 C25         0.5277   -9.0256   -6.6549 C.3       1 <0>         0.0518
     34 O3         -0.7411   -9.1051   -5.9920 O.3       1 <0>        -0.3671
     35 Cl1        -6.1890  -11.7230    0.2768 Cl        1 <0>        -0.0498
     36 H2         -0.9665    1.8612    0.0259 H         1 <0>         0.1584
     37 H3          1.0933    3.1789    0.0083 H         1 <0>         0.1614
     38 H4          3.2717    2.1606   -0.0175 H         1 <0>         0.1609
     39 H5          3.4952   -2.5561   -0.9413 H         1 <0>         0.1750
     40 H6          3.5129   -2.5667    0.8465 H         1 <0>         0.1752
     41 H7         -0.9210   -0.5647    0.0081 H         1 <0>         0.1610
     42 H8          1.1268   -3.9987    0.5563 H         1 <0>         0.1204
     43 H9         -0.2596   -2.8905    0.4214 H         1 <0>         0.1174
     44 H10         0.0203   -2.8403   -2.0419 H         1 <0>         0.0817
     45 H11         1.4067   -3.9484   -1.9070 H         1 <0>         0.0808
     46 H12        -0.8103   -5.1361   -0.6220 H         1 <0>         0.4103
     47 H13        -1.3155   -7.3705   -2.0415 H         1 <0>         0.1324
     48 H14        -2.7019   -6.2623   -2.1764 H         1 <0>         0.1302
     49 H15        -4.4499   -9.6622   -0.6083 H         1 <0>         0.1485
     50 H16        -6.7978  -12.8143   -2.2737 H         1 <0>         0.1463
     51 H17        -6.0823  -12.2103   -4.5307 H         1 <0>         0.1490
     52 H18        -3.8171   -8.8919   -7.3522 H         1 <0>         0.1216
     53 H19        -2.8672   -7.6078   -6.5669 H         1 <0>         0.1053
     54 H20        -1.6698   -9.5036   -9.1310 H         1 <0>         0.0902
     55 H21        -1.3769   -7.8711   -8.4399 H         1 <0>         0.0851
     56 H22         0.4793  -10.3191   -8.4137 H         1 <0>         0.0787
     57 H23         0.8944   -8.6082   -8.7669 H         1 <0>         0.0862
     58 H24         1.1999   -9.7855   -6.2563 H         1 <0>         0.0679
     59 H25         0.9601   -8.0354   -6.5106 H         1 <0>         0.0728
     60 H26         4.5087   -0.3528   -0.0446 H         1 <0>         0.4564
@<TRIPOS>BOND
     1    1    9 ar
     2    1    2 ar
     3    1   36 1
     4    2    3 ar
     5    2   37 1
     6    3    4 ar
     7    3   38 1
     8    4    8 ar
     9    4    5 2
    10    5    6 1
    11    5   60 1
    12    6    7 1
    13    6   39 1
    14    6   40 1
    15    7    8 2
    16    7   10 1
    17    8    9 ar
    18    9   41 1
    19   10   11 1
    20   10   42 1
    21   10   43 1
    22   11   12 1
    23   11   44 1
    24   11   45 1
    25   12   13 am
    26   12   46 1
    27   13   14 2
    28   13   15 1
    29   15   16 1
    30   15   47 1
    31   15   48 1
    32   16   17 1
    33   17   27 1
    34   17   18 2
    35   18   19 1
    36   19   24 ar
    37   19   20 ar
    38   20   21 ar
    39   20   49 1
    40   21   22 ar
    41   21   35 1
    42   22   23 ar
    43   22   50 1
    44   23   24 ar
    45   23   51 1
    46   24   25 1
    47   25   26 2
    48   25   27 am
    49   27   28 1
    50   28   29 1
    51   28   52 1
    52   28   53 1
    53   29   30 1
    54   29   34 1
    55   29   31 1
    56   31   32 1
    57   31   54 1
    58   31   55 1
    59   32   33 1
    60   32   56 1
    61   32   57 1
    62   33   34 1
    63   33   58 1
    64   33   59 1
@<TRIPOS>MOLECULE
ZINC10751086
   60    63     0     0     0
SMALL
USER_CHARGES
methyl 4-ethyl-8-[[1-(2-thienylsulfonyl)-3-piperidyl]carbonylamino]-7-thia-4-azabicyclo[4.3.0]nona-8,10-diene-9-carboxylate
@<TRIPOS>ATOM
      1 C1         -7.0709    5.9881    2.7334 C.3       1 <0>        -0.1898
      2 C2         -5.6448    6.4612    3.0222 C.3       1 <0>        -0.0044
      3 C3         -4.8016    4.7054    1.5830 C.3       1 <0>         0.0010
      4 C4         -3.5959    3.7892    1.3548 C.3       1 <0>        -0.0923
      5 C5         -3.4821    2.8453    2.5463 C.2       1 <0>        -0.0356
      6 C6         -4.1301    3.1270    3.6992 C.2       1 <0>        -0.3179
      7 S1         -3.7360    1.7828    4.7789 S.3       1 <0>         0.3439
      8 C7         -2.7308    0.8546    3.7151 C.2       1 <0>         0.1110
      9 C8         -2.7240    1.6080    2.5473 C.2       1 <0>        -0.2186
     10 C9         -1.9760    1.1733    1.3659 C.2       1 <0>         0.5209
     11 O1         -2.5122    0.4688    0.5318 O.2       1 <0>        -0.4816
     12 O2         -0.6923    1.5541    1.2026 O.3       1 <0>        -0.3507
     13 C10        -0.0127    1.0858    0.0080 C.3       1 <0>         0.0298
     14 N1         -2.0895   -0.3480    3.9676 N.am      1 <0>        -0.6188
     15 C11        -2.2130   -0.9375    5.1733 C.2       1 <0>         0.5246
     16 O3         -2.8853   -0.4157    6.0373 O.2       1 <0>        -0.4833
     17 C12        -1.5158   -2.2450    5.4478 C.3       1 <0>        -0.1208
     18 H1         -1.8715   -3.0009    4.7477 H         1 <0>         0.1179
     19 C13        -0.0055   -2.0635    5.2798 C.3       1 <0>        -0.1124
     20 C14         0.7010   -3.3984    5.5271 C.3       1 <0>        -0.1345
     21 C15         0.4254   -3.8602    6.9615 C.3       1 <0>         0.1129
     22 N2         -1.0277   -3.8979    7.1752 N.pl3     1 <0>        -0.9937
     23 C16        -1.8165   -2.6937    6.8813 C.3       1 <0>         0.1383
     24 S2         -1.7627   -5.2718    7.7361 S.o2      1 <0>         2.7226
     25 O4         -0.7672   -6.0100    8.4313 O.2       1 <0>        -0.9372
     26 O5         -2.9756   -4.8611    8.3519 O.2       1 <0>        -0.9401
     27 C17        -2.2123   -6.2334    6.3297 C.2       1 <0>        -0.7706
     28 C18        -1.4965   -7.1849    5.6820 C.2       1 <0>        -0.0009
     29 C19        -2.0575   -7.8173    4.5883 C.2       1 <0>        -0.1922
     30 C20        -3.3068   -7.4672    4.1959 C.2       1 <0>        -0.1262
     31 S3         -3.7319   -6.2128    5.3929 S.3       1 <0>         0.1559
     32 C21        -4.9804    4.3287    3.9698 C.3       1 <0>         0.1052
     33 H2         -7.1197    5.5753    1.7257 H         1 <0>         0.0808
     34 H3         -7.3521    5.2206    3.4544 H         1 <0>         0.0804
     35 H4         -7.7568    6.8313    2.8142 H         1 <0>         0.1072
     36 H5         -5.5960    6.8740    4.0298 H         1 <0>         0.1327
     37 H6         -5.3636    7.2288    2.3011 H         1 <0>         0.1325
     38 H7         -5.7186    4.1205    1.5120 H         1 <0>         0.1358
     39 H8         -4.8102    5.4850    0.8212 H         1 <0>         0.1388
     40 H9         -3.7382    3.2150    0.4393 H         1 <0>         0.1224
     41 H10        -2.6885    4.3880    1.2762 H         1 <0>         0.1096
     42 H11         0.0021   -0.0041    0.0020 H         1 <0>         0.0682
     43 H12         1.0099    1.4631    0.0003 H         1 <0>         0.1102
     44 H13        -0.5399    1.4469   -0.8751 H         1 <0>         0.0684
     45 H14        -1.5517   -0.7654    3.2765 H         1 <0>         0.4267
     46 H15         0.2088   -1.7208    4.2675 H         1 <0>         0.0716
     47 H16         0.3535   -1.3250    5.9966 H         1 <0>         0.0815
     48 H17         1.7745   -3.2737    5.3850 H         1 <0>         0.0905
     49 H18         0.3255   -4.1441    4.8263 H         1 <0>         0.0741
     50 H19         0.8800   -3.1617    7.6640 H         1 <0>         0.0849
     51 H20         0.8428   -4.8559    7.1114 H         1 <0>         0.0998
     52 H21        -1.5447   -1.9000    7.5772 H         1 <0>         0.0947
     53 H22        -2.8788   -2.9173    6.9789 H         1 <0>         0.1042
     54 H23        -0.5029   -7.4453    6.0156 H         1 <0>         0.1488
     55 H24        -1.5084   -8.5787    4.0543 H         1 <0>         0.1481
     56 H25        -3.8942   -7.8506    3.3746 H         1 <0>         0.1980
     57 H26        -6.0327    4.0450    3.9567 H         1 <0>         0.1459
     58 H27        -4.7242    4.7489    4.9424 H         1 <0>         0.1436
     59 N3         -4.6948    5.3329    2.9162 N.4       1 <0>        -0.3950
     60 H28        -3.7397    5.6879    3.0429 H         1 <0>         0.4333
@<TRIPOS>BOND
     1    1    2 1
     2    1   33 1
     3    1   34 1
     4    1   35 1
     5    2   36 1
     6    2   37 1
     7    2   59 1
     8    3    4 1
     9    3   38 1
    10    3   39 1
    11    3   59 1
    12    4    5 1
    13    4   40 1
    14    4   41 1
    15    5    9 1
    16    5    6 2
    17    6    7 1
    18    6   32 1
    19    7    8 1
    20    8    9 2
    21    8   14 1
    22    9   10 1
    23   10   11 2
    24   10   12 1
    25   12   13 1
    26   13   42 1
    27   13   43 1
    28   13   44 1
    29   14   15 am
    30   14   45 1
    31   15   16 2
    32   15   17 1
    33   17   18 1
    34   17   23 1
    35   17   19 1
    36   19   20 1
    37   19   46 1
    38   19   47 1
    39   20   21 1
    40   20   48 1
    41   20   49 1
    42   21   22 1
    43   21   50 1
    44   21   51 1
    45   22   23 1
    46   22   24 1
    47   23   52 1
    48   23   53 1
    49   24   25 2
    50   24   26 2
    51   24   27 1
    52   27   31 1
    53   27   28 2
    54   28   29 1
    55   28   54 1
    56   29   30 2
    57   29   55 1
    58   30   31 1
    59   30   56 1
    60   32   57 1
    61   32   58 1
    62   32   59 1
    63   59   60 1
@<TRIPOS>MOLECULE
ZINC21775638
   70    73     0     0     0
SMALL
USER_CHARGES
4-ethoxy-3-fluoro-N-[(2S)-2-(1-methyl-3,4-dihydro-2H-quinolin-6-yl)-2-(4-methylpiperazin-1-yl)ethyl]benzenesulfonamide
@<TRIPOS>ATOM
      1 C1          2.3884   -4.2589   14.3261 C.3       1 <0>        -0.1582
      2 C2          1.9842   -3.9907   12.8750 C.3       1 <0>         0.0481
      3 O1          2.1041   -2.5940   12.5975 O.3       1 <0>        -0.2988
      4 C3          1.7806   -2.1841   11.3423 C.ar      1 <0>         0.1590
      5 C4          1.3572   -3.1068   10.3978 C.ar      1 <0>        -0.2061
      6 C5          1.0238   -2.6873    9.1241 C.ar      1 <0>         0.0084
      7 C6          1.1222   -1.3501    8.7866 C.ar      1 <0>        -0.7013
      8 C7          1.5444   -0.4268    9.7250 C.ar      1 <0>        -0.0158
      9 C8          1.8740   -0.8402   11.0033 C.ar      1 <0>         0.0532
     10 F1          2.2866    0.0617   11.9207 F         1 <0>        -0.1219
     11 S1          0.7019   -0.8207    7.1594 S.o2      1 <0>         2.6990
     12 O2          0.3512    0.5529    7.2571 O.2       1 <0>        -0.9468
     13 O3         -0.1843   -1.7975    6.6307 O.2       1 <0>        -0.9452
     14 N1          2.0833   -0.8928    6.2489 N.pl3     1 <0>        -1.1176
     15 C9          2.7194   -2.1856    5.9841 C.3       1 <0>         0.1233
     16 C10         3.7183   -2.0366    4.8347 C.3       1 <0>         0.1381
     17 H1          4.4860   -1.2862    5.0748 H         1 <0>         0.0669
     18 C11         2.9854   -1.6318    3.5817 C.ar      1 <0>        -0.1282
     19 C12         2.3181   -2.5831    2.8314 C.ar      1 <0>        -0.0677
     20 C13         1.6516   -2.2111    1.6840 C.ar      1 <0>        -0.1651
     21 C14         1.6446   -0.8773    1.2715 C.ar      1 <0>         0.1431
     22 C15         2.3089    0.0712    2.0289 C.ar      1 <0>        -0.1211
     23 C16         2.9794   -0.3109    3.1804 C.ar      1 <0>        -0.0789
     24 C17         2.3253    1.5302    1.6479 C.3       1 <0>        -0.0847
     25 C18         1.8795    1.6870    0.1922 C.3       1 <0>        -0.1253
     26 C19         0.6084    0.8515   -0.0049 C.3       1 <0>         0.0519
     27 N2          0.9588   -0.5664    0.0983 N.pl3     1 <0>        -0.4971
     28 C20        -0.2302   -1.4151   -0.0571 C.3       1 <0>         0.0180
     29 N3          4.4012   -3.3177    4.6103 N.3       1 <0>        -0.5332
     30 C21         5.0042   -3.8179    5.8536 C.3       1 <0>         0.0139
     31 C22         5.6353   -5.1882    5.5960 C.3       1 <0>         0.0006
     32 N4          6.6454   -5.0679    4.5354 N.4       1 <0>        -0.4028
     33 C23         6.0424   -4.5677    3.2921 C.3       1 <0>         0.0007
     34 C24         5.4113   -3.1973    3.5497 C.3       1 <0>         0.0261
     35 C25         7.3284   -6.3490    4.3110 C.3       1 <0>        -0.0452
     36 H2          2.2961   -5.3340   14.5397 H         1 <0>         0.0867
     37 H3          1.7292   -3.6931   15.0009 H         1 <0>         0.0725
     38 H4          3.4305   -3.9424   14.4809 H         1 <0>         0.0701
     39 H5          2.6434   -4.5565   12.2002 H         1 <0>         0.0686
     40 H6          0.9422   -4.3072   12.7201 H         1 <0>         0.0723
     41 H7          1.2833   -4.1521   10.6589 H         1 <0>         0.1494
     42 H8          0.6894   -3.4055    8.3901 H         1 <0>         0.1495
     43 H9          1.6166    0.6177    9.4601 H         1 <0>         0.1607
     44 H10         2.6041    0.0402    5.9876 H         1 <0>         0.4431
     45 H11         3.2474   -2.5262    6.8870 H         1 <0>         0.0627
     46 H12         1.9509   -2.9229    5.7088 H         1 <0>         0.0994
     47 H13         2.3191   -3.6166    3.1448 H         1 <0>         0.1275
     48 H14         1.1314   -2.9561    1.1003 H         1 <0>         0.1283
     49 H15         3.5011    0.4302    3.7678 H         1 <0>         0.1197
     50 H16         1.6388    2.0877    2.3020 H         1 <0>         0.0785
     51 H17         3.3446    1.9276    1.7624 H         1 <0>         0.0789
     52 H18         1.6740    2.7474   -0.0161 H         1 <0>         0.0824
     53 H19         2.6770    1.3299   -0.4760 H         1 <0>         0.0764
     54 H20        -0.1260    1.1126    0.7713 H         1 <0>         0.0514
     55 H21         0.1827    1.0602   -0.9975 H         1 <0>         0.0902
     56 H22        -0.7513   -1.1492   -0.9887 H         1 <0>         0.0812
     57 H23        -0.9052   -1.2606    0.7976 H         1 <0>         0.0441
     58 H24         0.0756   -2.4710   -0.0966 H         1 <0>         0.0805
     59 H25         5.7784   -3.1147    6.1944 H         1 <0>         0.0642
     60 H26         4.2271   -3.9105    6.6267 H         1 <0>         0.1273
     61 H27         6.1121   -5.5515    6.5183 H         1 <0>         0.1358
     62 H28         4.8556   -5.8979    5.2823 H         1 <0>         0.1364
     63 H29         6.8195   -4.4751    2.5191 H         1 <0>         0.1362
     64 H30         5.2681   -5.2708    2.9513 H         1 <0>         0.1359
     65 H31         4.9336   -2.8334    2.6281 H         1 <0>         0.1296
     66 H32         6.1902   -2.4870    3.8641 H         1 <0>         0.0620
     67 H33         8.0773   -6.2306    3.5141 H         1 <0>         0.1245
     68 H34         6.5921   -7.1096    4.0122 H         1 <0>         0.1201
     69 H35         7.8272   -6.6660    5.2387 H         1 <0>         0.1240
     70 H36         7.3990   -4.3377    4.8653 H         1 <0>         0.4404
@<TRIPOS>BOND
     1    1    2 1
     2    1   36 1
     3    1   37 1
     4    1   38 1
     5    2    3 1
     6    2   39 1
     7    2   40 1
     8    3    4 1
     9    4    9 ar
    10    4    5 ar
    11    5    6 ar
    12    5   41 1
    13    6    7 ar
    14    6   42 1
    15    7    8 ar
    16    7   11 1
    17    8    9 ar
    18    8   43 1
    19    9   10 1
    20   11   12 2
    21   11   13 2
    22   11   14 1
    23   14   15 1
    24   14   44 1
    25   15   16 1
    26   15   45 1
    27   15   46 1
    28   16   17 1
    29   16   18 1
    30   16   29 1
    31   18   23 ar
    32   18   19 ar
    33   19   20 ar
    34   19   47 1
    35   20   21 ar
    36   20   48 1
    37   21   27 1
    38   21   22 ar
    39   22   23 ar
    40   22   24 1
    41   23   49 1
    42   24   25 1
    43   24   50 1
    44   24   51 1
    45   25   26 1
    46   25   52 1
    47   25   53 1
    48   26   27 1
    49   26   54 1
    50   26   55 1
    51   27   28 1
    52   28   56 1
    53   28   57 1
    54   28   58 1
    55   29   34 1
    56   29   30 1
    57   30   31 1
    58   30   59 1
    59   30   60 1
    60   31   32 1
    61   31   61 1
    62   31   62 1
    63   32   33 1
    64   32   35 1
    65   32   70 1
    66   33   34 1
    67   33   63 1
    68   33   64 1
    69   34   65 1
    70   34   66 1
    71   35   67 1
    72   35   68 1
    73   35   69 1
@<TRIPOS>MOLECULE
ZINC37264027
   72    75     0     0     0
SMALL
USER_CHARGES

@<TRIPOS>ATOM
      1 C1          1.2734    6.4331    1.5563 C.3       1 <0>        -0.1105
      2 C2          1.0258    5.6542    0.2901 C.ar      1 <0>        -0.0648
      3 C3          0.7849    6.3206   -0.8957 C.ar      1 <0>        -0.1061
      4 C4          0.5577    5.6067   -2.0577 C.ar      1 <0>        -0.1027
      5 C5          0.5708    4.2239   -2.0368 C.ar      1 <0>        -0.1065
      6 C6          0.8111    3.5520   -0.8545 C.ar      1 <0>        -0.1173
      7 C7          1.0453    4.2663    0.3131 C.ar      1 <0>         0.1293
      8 N1          1.2947    3.5873    1.5135 N.pl3     1 <0>        -0.3208
      9 C8          2.1727    2.5722    1.6936 C.2       1 <0>         0.3052
     10 C9          2.1200    2.1958    2.9922 C.2       1 <0>        -0.2189
     11 C10         1.1771    3.0002    3.6339 C.2       1 <0>         0.1338
     12 N2          0.6849    3.8379    2.7530 N.2       1 <0>        -0.2502
     13 C11         0.7948    2.9235    5.0895 C.3       1 <0>         0.0246
     14 C12         1.9314    3.4858    5.9456 C.3       1 <0>        -0.2042
     15 C13        -0.4757    3.7422    5.3270 C.3       1 <0>        -0.1363
     16 C14         0.5407    1.4645    5.4738 C.3       1 <0>        -0.2772
     17 C15         2.9527    1.0990    3.6048 C.3       1 <0>         0.0824
     18 H1          3.9902    1.2072    3.2888 H         1 <0>         0.1175
     19 S1          2.3024   -0.5132    3.0363 S.3       1 <0>        -0.1847
     20 C16         1.9375   -0.1736    1.2815 C.3       1 <0>        -0.1233
     21 C17         3.0323    0.6393    0.6596 C.2       1 <0>         0.5398
     22 O1          3.9423    0.0844    0.0807 O.2       1 <0>        -0.4893
     23 N3          3.0100    1.9737    0.7403 N.am      1 <0>        -0.5277
     24 C18         3.8404    2.7920   -0.1468 C.3       1 <0>         0.0931
     25 C19         5.1308    3.1379    0.5506 C.2       1 <0>         0.5080
     26 O2          5.3365    2.7399    1.6777 O.2       1 <0>        -0.5005
     27 N4          6.0562    3.8893   -0.0781 N.am      1 <0>        -0.7323
     28 C20         7.3107    4.2255    0.5998 C.3       1 <0>         0.0962
     29 C21         8.1780    5.0801   -0.3266 C.3       1 <0>        -0.0230
     30 N5          9.4358    5.4172    0.3532 N.4       1 <0>        -0.3830
     31 C22        10.3178    6.1351   -0.5766 C.3       1 <0>        -0.0468
     32 C23         9.1512    6.2698    1.5151 C.3       1 <0>        -0.0559
     33 C24         2.8704    1.1805    5.1074 C.2       1 <0>        -0.1785
     34 C25         2.0111    0.3556    5.8086 C.2       1 <0>        -0.0104
     35 C26         1.9614    0.4544    7.1596 C.2       1 <0>        -0.3099
     36 S2          3.1538    1.7438    7.4797 S.3       1 <0>         0.0512
     37 C27         3.6420    2.0600    5.7918 C.2       1 <0>        -0.1058
     38 H2          2.1415    6.0223    2.0717 H         1 <0>         0.0605
     39 H3          1.4585    7.4785    1.3094 H         1 <0>         0.0681
     40 H4          0.3992    6.3619    2.2035 H         1 <0>         0.0866
     41 H5          0.7737    7.4004   -0.9150 H         1 <0>         0.1357
     42 H6          0.3692    6.1300   -2.9835 H         1 <0>         0.1349
     43 H7          0.3926    3.6690   -2.9461 H         1 <0>         0.1370
     44 H8          0.8208    2.4722   -0.8388 H         1 <0>         0.1255
     45 H9          2.8422    3.5412    5.3494 H         1 <0>         0.0793
     46 H10         1.6643    4.4833    6.2945 H         1 <0>         0.0550
     47 H11         2.0975    2.8334    6.8029 H         1 <0>         0.1023
     48 H12        -1.2854    3.3416    4.7171 H         1 <0>         0.0562
     49 H13        -0.7521    3.6867    6.3799 H         1 <0>         0.0643
     50 H14        -0.2946    4.7816    5.0533 H         1 <0>         0.0596
     51 H15         1.1771    0.8144    4.8735 H         1 <0>         0.1680
     52 H16         0.7691    1.3219    6.5300 H         1 <0>         0.1399
     53 H17        -0.5053    1.2177    5.2918 H         1 <0>         0.0619
     54 H18         1.8427   -1.1179    0.7454 H         1 <0>         0.1481
     55 H19         0.9982    0.3748    1.2099 H         1 <0>         0.1075
     56 H20         4.0579    2.2343   -1.0577 H         1 <0>         0.1309
     57 H21         3.3075    3.7085   -0.4003 H         1 <0>         0.1160
     58 H22         5.8917    4.2076   -0.9795 H         1 <0>         0.4089
     59 H23         7.0932    4.7832    1.5108 H         1 <0>         0.0897
     60 H24         7.8436    3.3091    0.8534 H         1 <0>         0.0912
     61 H25         8.3954    4.5224   -1.2375 H         1 <0>         0.1397
     62 H26         7.6451    5.9966   -0.5801 H         1 <0>         0.1375
     63 H27         9.8278    7.0503   -0.9088 H         1 <0>         0.1237
     64 H28        11.2511    6.3852   -0.0722 H         1 <0>         0.1288
     65 H29        10.5290    5.5025   -1.4387 H         1 <0>         0.1256
     66 H30         8.6612    7.1850    1.1829 H         1 <0>         0.1247
     67 H31         8.4967    5.7371    2.2051 H         1 <0>         0.1252
     68 H32        10.0845    6.5199    2.0196 H         1 <0>         0.1298
     69 H33         1.3884   -0.3568    5.2879 H         1 <0>         0.1405
     70 H34         1.3569   -0.1023    7.8604 H         1 <0>         0.1900
     71 H35         4.3639    2.7688    5.4140 H         1 <0>         0.1825
     72 H36         9.8894    4.5700    0.6608 H         1 <0>         0.4309
@<TRIPOS>BOND
     1    1    2 1
     2    1   38 1
     3    1   39 1
     4    1   40 1
     5    2    7 ar
     6    2    3 ar
     7    3    4 ar
     8    3   41 1
     9    4    5 ar
    10    4   42 1
    11    5    6 ar
    12    5   43 1
    13    6    7 ar
    14    6   44 1
    15    7    8 1
    16    8   12 1
    17    8    9 1
    18    9   23 1
    19    9   10 2
    20   10   11 1
    21   10   17 1
    22   11   12 2
    23   11   13 1
    24   13   14 1
    25   13   15 1
    26   13   16 1
    27   14   45 1
    28   14   46 1
    29   14   47 1
    30   15   48 1
    31   15   49 1
    32   15   50 1
    33   16   51 1
    34   16   52 1
    35   16   53 1
    36   17   18 1
    37   17   19 1
    38   17   33 1
    39   19   20 1
    40   20   21 1
    41   20   54 1
    42   20   55 1
    43   21   22 2
    44   21   23 am
    45   23   24 1
    46   24   25 1
    47   24   56 1
    48   24   57 1
    49   25   26 2
    50   25   27 am
    51   27   28 1
    52   27   58 1
    53   28   29 1
    54   28   59 1
    55   28   60 1
    56   29   30 1
    57   29   61 1
    58   29   62 1
    59   30   31 1
    60   30   32 1
    61   30   72 1
    62   31   63 1
    63   31   64 1
    64   31   65 1
    65   32   66 1
    66   32   67 1
    67   32   68 1
    68   33   37 2
    69   33   34 1
    70   34   35 2
    71   34   69 1
    72   35   36 1
    73   35   70 1
    74   36   37 1
    75   37   71 1
@<TRIPOS>MOLECULE
ZINC20205480
   58    61     0     0     0
SMALL
USER_CHARGES

@<TRIPOS>ATOM
      1 C1         -2.2276   -0.0115   -0.5576 C.3       1 <0>        -0.1174
      2 C2         -1.8496   -1.4664   -0.4505 C.ar      1 <0>        -0.0422
      3 C3         -1.7062   -2.2289   -1.5950 C.ar      1 <0>        -0.1604
      4 C4         -1.3590   -3.5639   -1.5001 C.ar      1 <0>        -0.0423
      5 C5         -1.1549   -4.1393   -0.2609 C.ar      1 <0>        -0.1588
      6 C6         -1.2981   -3.3764    0.8890 C.ar      1 <0>         0.1390
      7 C7         -1.6410   -2.0357    0.7908 C.ar      1 <0>        -0.2177
      8 O1         -1.0979   -3.9402    2.1092 O.3       1 <0>        -0.3068
      9 C8         -1.2627   -3.0947    3.2494 C.3       1 <0>         0.0625
     10 C9         -0.9982   -3.8994    4.5235 C.3       1 <0>         0.0571
     11 O2          0.3702   -4.3100    4.5521 O.3       1 <0>        -0.2904
     12 C10         0.7727   -5.0391    5.6243 C.ar      1 <0>         0.1367
     13 C11        -0.1362   -5.3568    6.6261 C.ar      1 <0>        -0.1801
     14 C12         0.2649   -6.0956    7.7160 C.ar      1 <0>        -0.0400
     15 C13         1.5943   -6.5298    7.8165 C.ar      1 <0>        -0.1025
     16 C14         2.5100   -6.2086    6.8044 C.ar      1 <0>        -0.1331
     17 C15         2.0963   -5.4716    5.7137 C.ar      1 <0>         0.0918
     18 O3          2.9803   -5.1621    4.7277 O.3       1 <0>        -0.3024
     19 C16         4.3189   -5.6372    4.8840 C.3       1 <0>         0.0245
     20 C17         2.0251   -7.3158    8.9751 C.2       1 <0>         0.0738
     21 C18         1.5142   -7.0391   10.2229 C.2       1 <0>        -0.2724
     22 C19         1.7796   -7.9216   11.3960 C.2       1 <0>         0.4466
     23 N1          2.8895   -8.5897   11.5566 N.2       1 <0>        -0.6484
     24 N2          0.7105   -7.9604   12.3135 N.pl3     1 <0>        -0.4898
     25 C20        -0.1763   -6.9025   12.3344 C.2       1 <0>         0.3133
     26 N3         -0.1962   -5.8807   11.5068 N.2       1 <0>        -0.5420
     27 C21         0.6737   -5.8429   10.4778 C.2       1 <0>         0.5401
     28 O4          0.7659   -4.8526    9.7703 O.2       1 <0>        -0.4380
     29 S1         -1.1777   -7.2648   13.6168 S.3       1 <0>         0.3947
     30 N4         -0.5546   -8.7627   14.0381 N.2       1 <0>        -0.4887
     31 C22         0.4426   -8.9391   13.2148 C.2       1 <0>         0.3056
     32 S2          1.4140  -10.4080   13.2716 S.3       1 <0>         0.0929
     33 C23         0.6700  -11.3747   14.6142 C.3       1 <0>        -0.1696
     34 C24        -1.2036   -4.3920   -2.7495 C.3       1 <0>        -0.1162
     35 H1         -1.3244    0.5939   -0.6337 H         1 <0>         0.0734
     36 H2         -2.8423    0.1398   -1.4450 H         1 <0>         0.0693
     37 H3         -2.7895    0.2840    0.3284 H         1 <0>         0.0666
     38 H4         -1.8660   -1.7811   -2.5646 H         1 <0>         0.1232
     39 H5         -0.8844   -5.1823   -0.1872 H         1 <0>         0.1293
     40 H6         -1.7487   -1.4386    1.6842 H         1 <0>         0.1262
     41 H7         -0.5586   -2.2647    3.1911 H         1 <0>         0.0765
     42 H8         -2.2810   -2.7065    3.2697 H         1 <0>         0.0869
     43 H9         -1.2099   -3.2799    5.3950 H         1 <0>         0.0895
     44 H10        -1.6419   -4.7789    4.5379 H         1 <0>         0.0778
     45 H11        -1.1604   -5.0228    6.5495 H         1 <0>         0.1407
     46 H12        -0.4437   -6.3404    8.4933 H         1 <0>         0.1223
     47 H13         3.5354   -6.5401    6.8767 H         1 <0>         0.1413
     48 H14         4.7456   -5.2270    5.7993 H         1 <0>         0.0551
     49 H15         4.3137   -6.7257    4.9417 H         1 <0>         0.0553
     50 H16         4.9186   -5.3215    4.0303 H         1 <0>         0.1030
     51 H17         2.7436   -8.1124    8.8502 H         1 <0>         0.1425
     52 H18         3.5942   -8.5262   10.8930 H         1 <0>         0.3746
     53 H19         0.7267  -10.8087   15.5440 H         1 <0>         0.0972
     54 H20        -0.3738  -11.5815   14.3777 H         1 <0>         0.0954
     55 H21         1.2100  -12.3147   14.7275 H         1 <0>         0.1224
     56 H22        -0.1717   -4.3363   -3.0963 H         1 <0>         0.0741
     57 H23        -1.4582   -5.4293   -2.5319 H         1 <0>         0.0688
     58 H24        -1.8683   -4.0095   -3.5240 H         1 <0>         0.0693
@<TRIPOS>BOND
     1    1    2 1
     2    1   35 1
     3    1   36 1
     4    1   37 1
     5    2    7 ar
     6    2    3 ar
     7    3    4 ar
     8    3   38 1
     9    4    5 ar
    10    4   34 1
    11    5    6 ar
    12    5   39 1
    13    6    7 ar
    14    6    8 1
    15    7   40 1
    16    8    9 1
    17    9   10 1
    18    9   41 1
    19    9   42 1
    20   10   11 1
    21   10   43 1
    22   10   44 1
    23   11   12 1
    24   12   17 ar
    25   12   13 ar
    26   13   14 ar
    27   13   45 1
    28   14   15 ar
    29   14   46 1
    30   15   16 ar
    31   15   20 1
    32   16   17 ar
    33   16   47 1
    34   17   18 1
    35   18   19 1
    36   19   48 1
    37   19   49 1
    38   19   50 1
    39   20   21 2
    40   20   51 1
    41   21   27 1
    42   21   22 1
    43   22   23 2
    44   22   24 1
    45   23   52 1
    46   24   31 1
    47   24   25 1
    48   25   26 2
    49   25   29 1
    50   26   27 1
    51   27   28 2
    52   29   30 1
    53   30   31 2
    54   31   32 1
    55   32   33 1
    56   33   53 1
    57   33   54 1
    58   33   55 1
    59   34   56 1
    60   34   57 1
    61   34   58 1
@<TRIPOS>MOLECULE
ZINC63819161
   62    66     0     0     0
SMALL
USER_CHARGES

@<TRIPOS>ATOM
      1 C1         -3.0338   -3.7811    2.7304 C.ar      1 <0>        -0.1461
      2 C2         -4.1823   -3.0478    2.4017 C.ar      1 <0>         0.0546
      3 C3         -4.2326   -2.2046    1.3488 C.ar      1 <0>        -0.2079
      4 C4         -3.0940   -2.0267    0.5153 C.ar      1 <0>         0.3304
      5 N1         -2.8963   -1.2818   -0.5451 N.pl3     1 <0>        -0.5792
      6 C5         -1.5209   -1.4885   -1.0122 C.3       1 <0>         0.0598
      7 C6         -0.9049   -2.4879   -0.0588 C.2       1 <0>         0.0590
      8 C7         -1.8682   -2.7900    0.8414 C.ar      1 <0>        -0.1569
      9 C8         -1.8970   -3.6855    2.0040 C.ar      1 <0>        -0.0157
     10 C9          0.4979   -3.0368   -0.1031 C.3       1 <0>        -0.0416
     11 H1          0.6400   -3.7377    0.7194 H         1 <0>         0.1303
     12 C10         0.7210   -3.7593   -1.4332 C.3       1 <0>         0.1236
     13 N2         -0.1529   -4.9330   -1.5039 N.am      1 <0>        -0.7394
     14 C11        -0.2048   -5.6675   -2.6327 C.2       1 <0>         0.5658
     15 O1          0.4734   -5.3561   -3.5922 O.2       1 <0>        -0.5106
     16 C12        -1.0867   -6.8520   -2.7041 C.ar      1 <0>        -0.1623
     17 C13        -1.8712   -7.2090   -1.6060 C.ar      1 <0>        -0.0360
     18 C14        -2.6922   -8.3150   -1.6793 C.ar      1 <0>        -0.1406
     19 C15        -2.7389   -9.0703   -2.8378 C.ar      1 <0>         0.0115
     20 C16        -1.9640   -8.7220   -3.9296 C.ar      1 <0>        -0.6827
     21 C17        -1.1428   -7.6147   -3.8714 C.ar      1 <0>         0.0418
     22 S1         -2.0304   -9.6909   -5.3998 S.o2      1 <0>         2.6870
     23 O2         -0.8044   -9.4742   -6.0848 O.2       1 <0>        -0.9401
     24 O3         -2.4684  -10.9863   -5.0130 O.2       1 <0>        -0.9411
     25 N3         -3.2245   -9.0527   -6.3532 N.pl3     1 <0>        -0.9986
     26 C18        -4.6147   -9.5223   -6.2422 C.3       1 <0>         0.0829
     27 C19        -5.5272   -8.3000   -6.0896 C.3       1 <0>         0.0477
     28 O4         -5.2524   -7.3730   -7.1427 O.3       1 <0>        -0.3724
     29 C20        -3.9217   -6.8507   -7.1302 C.3       1 <0>         0.0485
     30 C21        -2.9280   -7.9948   -7.3322 C.3       1 <0>         0.0824
     31 C22         1.4995   -1.8876    0.0272 C.3       1 <0>        -0.0547
     32 H2          1.4285   -1.2026   -0.8177 H         1 <0>         0.1227
     33 C23         2.9474   -2.4131    0.2135 C.3       1 <0>        -0.1028
     34 C24         3.6961   -1.5669    1.1922 C.2       1 <0>        -0.1680
     35 C25         3.0360   -0.7786    2.0180 C.2       1 <0>        -0.1145
     36 S2          1.3079   -1.0031    1.6321 S.3       1 <0>        -0.1957
     37 H3         -3.0559   -4.4361    3.5887 H         1 <0>         0.1592
     38 H4         -5.0632   -3.1624    3.0158 H         1 <0>         0.1619
     39 H5         -5.1425   -1.6624    1.1379 H         1 <0>         0.1615
     40 H6         -1.5246   -1.8893   -2.0258 H         1 <0>         0.1737
     41 H7         -0.9683   -0.5495   -0.9809 H         1 <0>         0.1756
     42 H8         -1.0234   -4.2595    2.2754 H         1 <0>         0.1606
     43 H9          0.4896   -3.0840   -2.2569 H         1 <0>         0.0892
     44 H10         1.7615   -4.0762   -1.5045 H         1 <0>         0.1029
     45 H11        -0.6941   -5.1815   -0.7382 H         1 <0>         0.3991
     46 H12        -1.8352   -6.6208   -0.7010 H         1 <0>         0.1291
     47 H13        -3.2997   -8.5923   -0.8305 H         1 <0>         0.1449
     48 H14        -3.3828   -9.9358   -2.8898 H         1 <0>         0.1503
     49 H15        -0.5414   -7.3414   -4.7259 H         1 <0>         0.1555
     50 H16        -4.8884  -10.0748   -7.1410 H         1 <0>         0.0914
     51 H17        -4.7157  -10.1671   -5.3692 H         1 <0>         0.1008
     52 H18        -6.5694   -8.6146   -6.1442 H         1 <0>         0.1111
     53 H19        -5.3399   -7.8237   -5.1272 H         1 <0>         0.0527
     54 H20        -3.8087   -6.1227   -7.9335 H         1 <0>         0.1107
     55 H21        -3.7285   -6.3692   -6.1716 H         1 <0>         0.0512
     56 H22        -1.9125   -7.6287   -7.1807 H         1 <0>         0.1011
     57 H23        -3.0290   -8.3910   -8.3426 H         1 <0>         0.0913
     58 H24         2.9125   -3.4394    0.5791 H         1 <0>         0.1024
     59 H25         3.4629   -2.3930   -0.7467 H         1 <0>         0.1035
     60 H26         4.7752   -1.6009    1.2228 H         1 <0>         0.1445
     61 H27         3.4551   -0.1296    2.7728 H         1 <0>         0.1779
     62 H28        -3.5501   -0.6926   -0.9529 H         1 <0>         0.4571
@<TRIPOS>BOND
     1    1    9 ar
     2    1    2 ar
     3    1   37 1
     4    2    3 ar
     5    2   38 1
     6    3    4 ar
     7    3   39 1
     8    4    8 ar
     9    4    5 2
    10    5    6 1
    11    5   62 1
    12    6    7 1
    13    6   40 1
    14    6   41 1
    15    7    8 2
    16    7   10 1
    17    8    9 ar
    18    9   42 1
    19   10   11 1
    20   10   12 1
    21   10   31 1
    22   12   13 1
    23   12   43 1
    24   12   44 1
    25   13   14 am
    26   13   45 1
    27   14   15 2
    28   14   16 1
    29   16   21 ar
    30   16   17 ar
    31   17   18 ar
    32   17   46 1
    33   18   19 ar
    34   18   47 1
    35   19   20 ar
    36   19   48 1
    37   20   21 ar
    38   20   22 1
    39   21   49 1
    40   22   23 2
    41   22   24 2
    42   22   25 1
    43   25   30 1
    44   25   26 1
    45   26   27 1
    46   26   50 1
    47   26   51 1
    48   27   28 1
    49   27   52 1
    50   27   53 1
    51   28   29 1
    52   29   30 1
    53   29   54 1
    54   29   55 1
    55   30   56 1
    56   30   57 1
    57   31   32 1
    58   31   36 1
    59   31   33 1
    60   33   34 1
    61   33   58 1
    62   33   59 1
    63   34   35 2
    64   34   60 1
    65   35   36 1
    66   35   61 1
@<TRIPOS>MOLECULE
ZINC09849887
   64    67     0     0     0
SMALL
USER_CHARGES
N-[5-[(4-benzhydrylpiperazin-1-yl)carbonylmethylsulfanyl]-1,3,4-thiadiazol-2-yl]-2-methyl-propanamide
@<TRIPOS>ATOM
      1 C1          3.4500    0.8452   12.1047 C.3       1 <0>        -0.1512
      2 C2          4.2022    0.1811   10.9496 C.3       1 <0>        -0.1048
      3 C3          4.0933   -1.3396   11.0775 C.3       1 <0>        -0.1379
      4 C4          3.5995    0.6195    9.6398 C.2       1 <0>         0.5133
      5 O1          3.1292   -0.2034    8.8830 O.2       1 <0>        -0.4632
      6 N1          3.5832    1.9260    9.3093 N.am      1 <0>        -0.6125
      7 C5          3.0262    2.3312    8.0987 C.2       1 <0>         0.2947
      8 N2          2.4660    1.6144    7.1383 N.2       1 <0>        -0.2774
      9 N3          2.0043    2.1444    6.0911 N.2       1 <0>        -0.2562
     10 C6          2.0521    3.4530    5.8887 C.2       1 <0>        -0.0213
     11 S1          2.8705    3.9702    7.3949 S.3       1 <0>         0.0644
     12 S2          1.4805    4.4099    4.5240 S.3       1 <0>         0.1384
     13 C7          0.7754    3.1811    3.3912 C.3       1 <0>        -0.1690
     14 C8          0.2428    3.8759    2.1645 C.2       1 <0>         0.5485
     15 O2          0.3304    5.0814    2.0644 O.2       1 <0>        -0.4909
     16 N4         -0.3307    3.1578    1.1788 N.am      1 <0>        -0.6270
     17 C9         -0.4459    1.6949    1.2800 C.3       1 <0>         0.0814
     18 C10         0.1149    1.0726   -0.0031 C.3       1 <0>        -0.0198
     19 C11        -0.2794    3.1100   -1.2581 C.3       1 <0>        -0.0171
     20 C12        -0.8569    3.8159   -0.0267 C.3       1 <0>         0.0912
     21 C13        -0.1695    0.9809   -2.4059 C.3       1 <0>         0.1378
     22 C14        -0.4972   -0.4853   -2.2880 C.ar      1 <0>        -0.1353
     23 C15        -1.7078   -0.8819   -1.7514 C.ar      1 <0>        -0.1211
     24 C16        -2.0105   -2.2267   -1.6477 C.ar      1 <0>        -0.1022
     25 C17        -1.0983   -3.1751   -2.0713 C.ar      1 <0>        -0.0907
     26 C18         0.1146   -2.7786   -2.6027 C.ar      1 <0>        -0.1034
     27 C19         0.4151   -1.4336   -2.7112 C.ar      1 <0>        -0.0864
     28 C20        -0.9274    1.5734   -3.5659 C.ar      1 <0>        -0.1357
     29 C21        -2.2802    1.8321   -3.4478 C.ar      1 <0>        -0.1198
     30 C22        -2.9744    2.3801   -4.5102 C.ar      1 <0>        -0.1028
     31 C23        -2.3180    2.6599   -5.6941 C.ar      1 <0>        -0.0905
     32 C24        -0.9664    2.3959   -5.8142 C.ar      1 <0>        -0.1039
     33 C25        -0.2711    1.8528   -4.7500 C.ar      1 <0>        -0.0861
     34 H1          3.5276    1.9286   12.0136 H         1 <0>         0.0605
     35 H2          2.4007    0.5520   12.0713 H         1 <0>         0.0659
     36 H3          3.8859    0.5281   13.0521 H         1 <0>         0.0798
     37 H4          5.2514    0.4744   10.9830 H         1 <0>         0.1091
     38 H5          4.6291   -1.8127   10.2546 H         1 <0>         0.0656
     39 H6          4.5292   -1.6567   12.0249 H         1 <0>         0.0721
     40 H7          3.0440   -1.6328   11.0441 H         1 <0>         0.0660
     41 H8          3.9593    2.5842    9.9145 H         1 <0>         0.4315
     42 H9         -0.0362    2.6509    3.8896 H         1 <0>         0.1338
     43 H10         1.5484    2.4702    3.0992 H         1 <0>         0.1316
     44 H11        -1.4938    1.4175    1.3938 H         1 <0>         0.1025
     45 H12         0.1249    1.3408    2.1385 H         1 <0>         0.1348
     46 H13        -0.0628   -0.0027    0.0063 H         1 <0>         0.1464
     47 H14         1.1865    1.2637   -0.0618 H         1 <0>         0.1398
     48 H15         0.7976    3.2731   -1.2991 H         1 <0>         0.1389
     49 H16        -0.7427    3.5122   -2.1591 H         1 <0>         0.1450
     50 H17        -0.5579    4.8641   -0.0317 H         1 <0>         0.1407
     51 H18        -1.9446    3.7454   -0.0407 H         1 <0>         0.0980
     52 H19         0.9010    1.1018   -2.5717 H         1 <0>         0.1498
     53 H20        -2.4188   -0.1410   -1.4166 H         1 <0>         0.1155
     54 H21        -2.9580   -2.5365   -1.2322 H         1 <0>         0.1359
     55 H22        -1.3332   -4.2259   -1.9868 H         1 <0>         0.1364
     56 H23         0.8274   -3.5195   -2.9334 H         1 <0>         0.1375
     57 H24         1.3628   -1.1238   -3.1264 H         1 <0>         0.1331
     58 H25        -2.7939    1.6097   -2.5242 H         1 <0>         0.1156
     59 H26        -4.0305    2.5860   -4.4165 H         1 <0>         0.1359
     60 H27        -2.8612    3.0845   -6.5254 H         1 <0>         0.1364
     61 H28        -0.4536    2.6142   -6.7392 H         1 <0>         0.1376
     62 H29         0.7849    1.6465   -4.8438 H         1 <0>         0.1331
     63 N5         -0.5840    1.6657   -1.1639 N.4       1 <0>        -0.3929
     64 H30        -1.5962    1.5465   -1.0394 H         1 <0>         0.4203
@<TRIPOS>BOND
     1    1    2 1
     2    1   34 1
     3    1   35 1
     4    1   36 1
     5    2    3 1
     6    2    4 1
     7    2   37 1
     8    3   38 1
     9    3   39 1
    10    3   40 1
    11    4    5 2
    12    4    6 am
    13    6    7 1
    14    6   41 1
    15    7   11 1
    16    7    8 2
    17    8    9 1
    18    9   10 2
    19   10   11 1
    20   10   12 1
    21   12   13 1
    22   13   14 1
    23   13   42 1
    24   13   43 1
    25   14   15 2
    26   14   16 am
    27   16   20 1
    28   16   17 1
    29   17   18 1
    30   17   44 1
    31   17   45 1
    32   18   46 1
    33   18   47 1
    34   18   63 1
    35   19   20 1
    36   19   48 1
    37   19   49 1
    38   19   63 1
    39   20   50 1
    40   20   51 1
    41   21   22 1
    42   21   28 1
    43   21   52 1
    44   21   63 1
    45   22   27 ar
    46   22   23 ar
    47   23   24 ar
    48   23   53 1
    49   24   25 ar
    50   24   54 1
    51   25   26 ar
    52   25   55 1
    53   26   27 ar
    54   26   56 1
    55   27   57 1
    56   28   33 ar
    57   28   29 ar
    58   29   30 ar
    59   29   58 1
    60   30   31 ar
    61   30   59 1
    62   31   32 ar
    63   31   60 1
    64   32   33 ar
    65   32   61 1
    66   33   62 1
    67   63   64 1
@<TRIPOS>MOLECULE
ZINC22789384
   71    74     0     0     0
SMALL
USER_CHARGES
(2R)-2-[4-(2-diethylamino-2-oxo-ethyl)piperazin-1-yl]-N-[4-(6-methyl-1,3-benzothiazol-2-yl)phenyl]propanamide
@<TRIPOS>ATOM
      1 C1         -6.2664   18.3718    3.9039 C.3       1 <0>        -0.1724
      2 C2         -5.9483   18.2834    2.4099 C.3       1 <0>         0.1036
      3 N1         -4.8944   17.2891    2.1931 N.am      1 <0>        -0.5849
      4 C3         -3.4872   17.6958    2.2185 C.3       1 <0>         0.0867
      5 C4         -3.0461   18.0950    0.8090 C.3       1 <0>        -0.1788
      6 C5         -5.2195   16.0003    1.9701 C.2       1 <0>         0.5013
      7 O1         -6.3844   15.6636    1.9490 O.2       1 <0>        -0.5308
      8 C6         -4.1354   14.9775    1.7470 C.3       1 <0>        -0.0314
      9 N2         -4.7435   13.6913    1.3812 N.4       1 <0>        -0.3904
     10 C7         -5.4099   13.7766    0.0742 C.3       1 <0>        -0.0020
     11 C8         -6.0965   12.4438   -0.2333 C.3       1 <0>         0.0269
     12 N3         -5.0965   11.3670   -0.2246 N.3       1 <0>        -0.5178
     13 C9         -4.4300   11.2817    1.0824 C.3       1 <0>         0.0073
     14 C10        -3.7434   12.6145    1.3899 C.3       1 <0>         0.0051
     15 C11        -5.7045   10.0808   -0.5904 C.3       1 <0>         0.0674
     16 H1         -6.1923   10.2078   -1.5681 H         1 <0>         0.1273
     17 C12        -6.7197    9.6739    0.4795 C.3       1 <0>        -0.1933
     18 C13        -4.6309    9.0280   -0.6905 C.2       1 <0>         0.5235
     19 O2         -3.4732    9.3203   -0.4780 O.2       1 <0>        -0.5087
     20 N4         -4.9573    7.7615   -1.0162 N.am      1 <0>        -0.6792
     21 C14        -3.9809    6.7628   -1.0010 C.ar      1 <0>         0.1617
     22 C15        -4.3092    5.4779   -0.5830 C.ar      1 <0>        -0.1416
     23 C16        -3.3486    4.4905   -0.5674 C.ar      1 <0>        -0.0474
     24 C17        -2.0441    4.7811   -0.9719 C.ar      1 <0>        -0.0291
     25 C18        -1.7164    6.0738   -1.3861 C.ar      1 <0>        -0.0684
     26 C19        -2.6828    7.0554   -1.4045 C.ar      1 <0>        -0.1187
     27 C20        -1.0111    3.7246   -0.9559 C.2       1 <0>         0.1918
     28 N5         -1.1268    2.4627   -0.6027 N.2       1 <0>        -0.4918
     29 C21        -0.0891    1.6039   -0.6338 C.ar      1 <0>         0.0672
     30 C22        -0.0769    0.2337   -0.2787 C.ar      1 <0>        -0.0516
     31 C23         1.0635   -0.5005   -0.3735 C.ar      1 <0>        -0.1121
     32 C24         2.2543    0.0564   -0.8190 C.ar      1 <0>        -0.0504
     33 C25         2.2859    1.3915   -1.1764 C.ar      1 <0>        -0.0735
     34 C26         1.1396    2.1423   -1.0840 C.ar      1 <0>        -0.1306
     35 S1          0.7119    3.8338   -1.4184 S.3       1 <0>        -0.0057
     36 C27         3.5005   -0.7859   -0.9116 C.3       1 <0>        -0.1198
     37 H2         -7.0577   19.1183    4.0667 H         1 <0>         0.0785
     38 H3         -5.3619   18.6701    4.4543 H         1 <0>         0.0609
     39 H4         -6.6082   17.3905    4.2647 H         1 <0>         0.0598
     40 H5         -6.8528   17.9851    1.8595 H         1 <0>         0.0931
     41 H6         -5.6065   19.2647    2.0491 H         1 <0>         0.0915
     42 H7         -3.3654   18.5528    2.8973 H         1 <0>         0.1003
     43 H8         -2.8695   16.8572    2.5723 H         1 <0>         0.0830
     44 H9         -1.9895   18.4004    0.8282 H         1 <0>         0.0828
     45 H10        -3.6638   18.9336    0.4552 H         1 <0>         0.0703
     46 H11        -3.1679   17.2380    0.1302 H         1 <0>         0.0541
     47 H12        -3.4746   15.3148    0.9349 H         1 <0>         0.1559
     48 H13        -3.5496   14.8568    2.6702 H         1 <0>         0.1609
     49 H14        -6.1607   14.5802    0.0972 H         1 <0>         0.1449
     50 H15        -4.6638   13.9940   -0.7043 H         1 <0>         0.1327
     51 H16        -6.8619   12.2409    0.5303 H         1 <0>         0.0680
     52 H17        -6.5718   12.4961   -1.2240 H         1 <0>         0.1254
     53 H18        -5.1761   11.0643    1.8609 H         1 <0>         0.0609
     54 H19        -3.6792   10.4781    1.0594 H         1 <0>         0.1501
     55 H20        -2.9782   12.8186    0.6265 H         1 <0>         0.1388
     56 H21        -3.2683   12.5633    2.3807 H         1 <0>         0.1365
     57 H22        -7.1750    8.7107    0.2055 H         1 <0>         0.0833
     58 H23        -7.5034   10.4424    0.5525 H         1 <0>         0.0771
     59 H24        -6.2106    9.5761    1.4497 H         1 <0>         0.0701
     60 H25        -5.9926    7.5144   -1.2940 H         1 <0>         0.4401
     61 H26        -5.3184    5.2536   -0.2706 H         1 <0>         0.1361
     62 H27        -3.6042    3.4928   -0.2423 H         1 <0>         0.1429
     63 H28        -0.7072    6.3028   -1.6953 H         1 <0>         0.1328
     64 H29        -2.4309    8.0545   -1.7283 H         1 <0>         0.1456
     65 H30        -0.9848   -0.2342    0.0723 H         1 <0>         0.1353
     66 H31         1.0423   -1.5437   -0.0946 H         1 <0>         0.1374
     67 H32         3.2042    1.8402   -1.5254 H         1 <0>         0.1359
     68 H33         4.3328   -0.1697   -1.2825 H         1 <0>         0.0712
     69 H34         3.3268   -1.6227   -1.6041 H         1 <0>         0.0795
     70 H35         3.7515   -1.1801    0.0842 H         1 <0>         0.0792
     71 H36        -5.5065   13.4525    2.1367 H         1 <0>         0.4455
@<TRIPOS>BOND
     1    1    2 1
     2    1   37 1
     3    1   38 1
     4    1   39 1
     5    2    3 1
     6    2   40 1
     7    2   41 1
     8    3    4 1
     9    3    6 am
    10    4    5 1
    11    4   42 1
    12    4   43 1
    13    5   44 1
    14    5   45 1
    15    5   46 1
    16    6    7 2
    17    6    8 1
    18    8    9 1
    19    8   47 1
    20    8   48 1
    21    9   14 1
    22    9   10 1
    23    9   71 1
    24   10   11 1
    25   10   49 1
    26   10   50 1
    27   11   12 1
    28   11   51 1
    29   11   52 1
    30   12   13 1
    31   12   15 1
    32   13   14 1
    33   13   53 1
    34   13   54 1
    35   14   55 1
    36   14   56 1
    37   15   16 1
    38   15   17 1
    39   15   18 1
    40   17   57 1
    41   17   58 1
    42   17   59 1
    43   18   19 2
    44   18   20 am
    45   20   21 1
    46   20   60 1
    47   21   26 ar
    48   21   22 ar
    49   22   23 ar
    50   22   61 1
    51   23   24 ar
    52   23   62 1
    53   24   25 ar
    54   24   27 1
    55   25   26 ar
    56   25   63 1
    57   26   64 1
    58   27   35 1
    59   27   28 2
    60   28   29 1
    61   29   34 ar
    62   29   30 ar
    63   30   31 ar
    64   30   65 1
    65   31   32 ar
    66   31   66 1
    67   32   33 ar
    68   32   36 1
    69   33   34 ar
    70   33   67 1
    71   34   35 1
    72   36   68 1
    73   36   69 1
    74   36   70 1
@<TRIPOS>MOLECULE
ZINC08680448
   47    49     0     0     0
SMALL
USER_CHARGES

@<TRIPOS>ATOM
      1 C1          0.0653    1.2480   -0.5860 C.ar      1 <0>        -0.1167
      2 C2          1.2526    1.9534   -0.5843 C.ar      1 <0>        -0.0899
      3 C3          2.3792    1.4127    0.0101 C.ar      1 <0>        -0.0344
      4 C4          2.3194    0.1646    0.6046 C.ar      1 <0>        -0.0926
      5 C5          1.1345   -0.5450    0.6058 C.ar      1 <0>        -0.1009
      6 C6          0.0025   -0.0047    0.0100 C.ar      1 <0>         0.1193
      7 N1         -1.1998   -0.7216    0.0101 N.am      1 <0>        -0.6427
      8 C7         -1.1834   -2.0648   -0.0990 C.2       1 <0>         0.5011
      9 O1         -0.1263   -2.6593   -0.1129 O.2       1 <0>        -0.5062
     10 C8         -2.4786   -2.8281   -0.2038 C.3       1 <0>        -0.0400
     11 N2         -2.1928   -4.2650   -0.3117 N.4       1 <0>        -0.3522
     12 C9         -1.3771   -4.4845   -1.5039 C.3       1 <0>        -0.0185
     13 C10        -0.4946   -5.6942   -1.2893 C.3       1 <0>        -0.1396
     14 C11        -1.1960   -6.9457   -1.8477 C.3       1 <0>         0.0917
     15 N3         -2.6424   -6.9211   -1.5501 N.pl3     1 <0>        -1.0045
     16 C12        -3.1630   -6.4915   -0.2686 C.3       1 <0>         0.1051
     17 C13        -3.4190   -4.9660   -0.2918 C.3       1 <0>        -0.0539
     18 S1         -3.7072   -7.4023   -2.7236 S.o2      1 <0>         2.7188
     19 O2         -4.9492   -6.7798   -2.4251 O.2       1 <0>        -0.9362
     20 O3         -3.0462   -7.2254   -3.9690 O.2       1 <0>        -0.9300
     21 C14        -3.9524   -9.1359   -2.5254 C.2       1 <0>        -0.7795
     22 C15        -4.8790   -9.7870   -1.7811 C.2       1 <0>         0.0056
     23 C16        -4.8842  -11.1695   -1.7758 C.2       1 <0>        -0.1540
     24 C17        -3.9613  -11.8329   -2.5159 C.2       1 <0>        -0.1312
     25 S2         -3.0495  -10.4900   -3.2591 S.3       1 <0>         0.2412
     26 Br1        -3.7104  -13.6966   -2.7150 Br        1 <0>         0.0738
     27 Cl1         3.8704    2.3016    0.0094 Cl        1 <0>        -0.0507
     28 H1         -0.8148    1.6722   -1.0464 H         1 <0>         0.1402
     29 H2          1.3019    2.9277   -1.0477 H         1 <0>         0.1455
     30 H3          3.2000   -0.2552    1.0679 H         1 <0>         0.1429
     31 H4          1.0885   -1.5194    1.0693 H         1 <0>         0.1472
     32 H5         -2.0446   -0.2516    0.0887 H         1 <0>         0.4226
     33 H6         -3.0821   -2.6434    0.6849 H         1 <0>         0.1678
     34 H7         -3.0239   -2.4987   -1.0882 H         1 <0>         0.1661
     35 H8         -2.0263   -4.6554   -2.3626 H         1 <0>         0.1253
     36 H9         -0.7552   -3.6080   -1.6859 H         1 <0>         0.1510
     37 H10         0.4540   -5.5483   -1.8060 H         1 <0>         0.1284
     38 H11        -0.3112   -5.8257   -0.2229 H         1 <0>         0.0938
     39 H12        -1.0536   -6.9837   -2.9277 H         1 <0>         0.1163
     40 H13        -0.7534   -7.8345   -1.3979 H         1 <0>         0.0944
     41 H14        -4.0981   -7.0131   -0.0641 H         1 <0>         0.1292
     42 H15        -2.4403   -6.7258    0.5130 H         1 <0>         0.1120
     43 H16        -3.9834   -4.6811    0.5961 H         1 <0>         0.1539
     44 H17        -3.9956   -4.7101   -1.1807 H         1 <0>         0.1397
     45 H18        -5.6025   -9.2341   -1.2003 H         1 <0>         0.1564
     46 H19        -5.6116  -11.7129   -1.1910 H         1 <0>         0.1586
     47 H20        -1.6544   -4.5425    0.4952 H         1 <0>         0.4255
@<TRIPOS>BOND
     1    1    6 ar
     2    1    2 ar
     3    1   28 1
     4    2    3 ar
     5    2   29 1
     6    3    4 ar
     7    3   27 1
     8    4    5 ar
     9    4   30 1
    10    5    6 ar
    11    5   31 1
    12    6    7 1
    13    7    8 am
    14    7   32 1
    15    8    9 2
    16    8   10 1
    17   10   11 1
    18   10   33 1
    19   10   34 1
    20   11   17 1
    21   11   12 1
    22   11   47 1
    23   12   13 1
    24   12   35 1
    25   12   36 1
    26   13   14 1
    27   13   37 1
    28   13   38 1
    29   14   15 1
    30   14   39 1
    31   14   40 1
    32   15   16 1
    33   15   18 1
    34   16   17 1
    35   16   41 1
    36   16   42 1
    37   17   43 1
    38   17   44 1
    39   18   19 2
    40   18   20 2
    41   18   21 1
    42   21   25 1
    43   21   22 2
    44   22   23 1
    45   22   45 1
    46   23   24 2
    47   23   46 1
    48   24   25 1
    49   24   26 1
@<TRIPOS>MOLECULE
ZINC46578328
   59    62     0     0     0
SMALL
USER_CHARGES

@<TRIPOS>ATOM
      1 C1         -0.0912    1.8930    0.2792 C.3       1 <0>        -0.0675
      2 N1         -0.3336    0.4443    0.2562 N.4       1 <0>        -0.3604
      3 C2         -1.7795    0.1891    0.3003 C.3       1 <0>        -0.0483
      4 C3         -2.3337    0.6651    1.6184 C.2       1 <0>         0.5131
      5 O1         -1.5966    1.1675    2.4402 O.2       1 <0>        -0.5030
      6 N2         -3.6484    0.5324    1.8840 N.am      1 <0>        -0.6467
      7 C4         -4.1428    0.8617    3.1509 C.ar      1 <0>         0.1765
      8 C5         -3.3033    0.8251    4.2568 C.ar      1 <0>        -0.1272
      9 C6         -3.7943    1.1505    5.5057 C.ar      1 <0>        -0.0627
     10 C7         -5.1207    1.5122    5.6561 C.ar      1 <0>        -0.1194
     11 C8         -5.9592    1.5491    4.5574 C.ar      1 <0>        -0.0475
     12 C9         -5.4725    1.2311    3.3043 C.ar      1 <0>        -0.2043
     13 C10        -6.3852    1.2787    2.1062 C.3       1 <0>         0.5069
     14 F1         -7.6648    1.6748    2.5101 F         1 <0>        -0.1637
     15 F2         -5.8854    2.1956    1.1752 F         1 <0>        -0.1762
     16 F3         -6.4529    0.0098    1.5208 F         1 <0>        -0.1778
     17 C11         0.2271   -0.1264   -0.9759 C.3       1 <0>        -0.0087
     18 H1         -0.2472    0.3152   -1.8523 H         1 <0>         0.1986
     19 C12         1.7547    0.0801   -1.0235 C.3       1 <0>        -0.1673
     20 C13         2.3025   -1.3301   -1.0536 C.2       1 <0>         0.5214
     21 O2          3.4773   -1.6264   -1.0939 O.2       1 <0>        -0.4166
     22 N3          1.2841   -2.1988   -1.0283 N.am      1 <0>        -0.4934
     23 C14         0.0685   -1.6312   -0.9859 C.2       1 <0>         0.5135
     24 O3         -0.9874   -2.2262   -0.9586 O.2       1 <0>        -0.4279
     25 C15         1.4715   -3.5894   -1.0466 C.ar      1 <0>         0.0476
     26 C16         0.3761   -4.4363   -1.1472 C.ar      1 <0>        -0.0895
     27 C17         0.5608   -5.8044   -1.1651 C.ar      1 <0>        -0.1792
     28 C18         1.8411   -6.3330   -1.0821 C.ar      1 <0>         0.1413
     29 C19         2.9362   -5.4868   -0.9811 C.ar      1 <0>        -0.1262
     30 C20         2.7527   -4.1183   -0.9698 C.ar      1 <0>        -0.0861
     31 O4          2.0226   -7.6800   -1.0993 O.3       1 <0>        -0.2493
     32 C21         0.9188   -8.4725   -1.0966 C.ar      1 <0>         0.0709
     33 C22         0.1671   -8.6212   -2.2534 C.ar      1 <0>        -0.1338
     34 C23        -0.9543   -9.4278   -2.2480 C.ar      1 <0>        -0.1041
     35 C24        -1.3279  -10.0867   -1.0911 C.ar      1 <0>        -0.1116
     36 C25        -0.5809   -9.9399    0.0631 C.ar      1 <0>        -0.1029
     37 C26         0.5447   -9.1390    0.0616 C.ar      1 <0>        -0.1177
     38 H2          0.9817    2.0825    0.2465 H         1 <0>         0.1350
     39 H3         -0.5682    2.3550   -0.5851 H         1 <0>         0.1322
     40 H4         -0.5072    2.3165    1.1934 H         1 <0>         0.1514
     41 H5         -2.2680    0.7245   -0.5139 H         1 <0>         0.1746
     42 H6         -1.9631   -0.8801    0.1938 H         1 <0>         0.1799
     43 H7         -4.2517    0.2087    1.1970 H         1 <0>         0.4222
     44 H8         -2.2676    0.5421    4.1400 H         1 <0>         0.1547
     45 H9         -3.1420    1.1223    6.3660 H         1 <0>         0.1439
     46 H10        -5.5025    1.7659    6.6340 H         1 <0>         0.1456
     47 H11        -6.9946    1.8316    4.6782 H         1 <0>         0.1507
     48 H12         2.0407    0.6220   -1.9250 H         1 <0>         0.1695
     49 H13         2.0987    0.6063   -0.1331 H         1 <0>         0.1494
     50 H14        -0.6205   -4.0250   -1.2110 H         1 <0>         0.1592
     51 H15        -0.2913   -6.4633   -1.2434 H         1 <0>         0.1433
     52 H16         3.9325   -5.8985   -0.9158 H         1 <0>         0.1490
     53 H17         3.6054   -3.4597   -0.8960 H         1 <0>         0.1670
     54 H18         0.4583   -8.1065   -3.1571 H         1 <0>         0.1312
     55 H19        -1.5399   -9.5437   -3.1480 H         1 <0>         0.1338
     56 H20        -2.2050  -10.7169   -1.0890 H         1 <0>         0.1327
     57 H21        -0.8752  -10.4550    0.9655 H         1 <0>         0.1352
     58 H22         1.1306   -9.0284    0.9621 H         1 <0>         0.1338
     59 H23         0.1080    0.0167    1.0563 H         1 <0>         0.4348
@<TRIPOS>BOND
     1    1    2 1
     2    1   38 1
     3    1   39 1
     4    1   40 1
     5    2    3 1
     6    2   17 1
     7    2   59 1
     8    3    4 1
     9    3   41 1
    10    3   42 1
    11    4    5 2
    12    4    6 am
    13    6    7 1
    14    6   43 1
    15    7   12 ar
    16    7    8 ar
    17    8    9 ar
    18    8   44 1
    19    9   10 ar
    20    9   45 1
    21   10   11 ar
    22   10   46 1
    23   11   12 ar
    24   11   47 1
    25   12   13 1
    26   13   14 1
    27   13   15 1
    28   13   16 1
    29   17   18 1
    30   17   23 1
    31   17   19 1
    32   19   20 1
    33   19   48 1
    34   19   49 1
    35   20   21 2
    36   20   22 am
    37   22   23 am
    38   22   25 1
    39   23   24 2
    40   25   30 ar
    41   25   26 ar
    42   26   27 ar
    43   26   50 1
    44   27   28 ar
    45   27   51 1
    46   28   29 ar
    47   28   31 1
    48   29   30 ar
    49   29   52 1
    50   30   53 1
    51   31   32 1
    52   32   37 ar
    53   32   33 ar
    54   33   34 ar
    55   33   54 1
    56   34   35 ar
    57   34   55 1
    58   35   36 ar
    59   35   56 1
    60   36   37 ar
    61   36   57 1
    62   37   58 1
@<TRIPOS>MOLECULE
ZINC64337904
   68    73     0     0     0
SMALL
USER_CHARGES

@<TRIPOS>ATOM
      1 C1         -1.4711   -0.5736    0.1656 C.3       1 <0>        -0.1753
      2 C2         -0.0568   -0.0208   -0.0212 C.3       1 <0>        -0.0114
      3 H1          0.3828   -0.4450   -0.9239 H         1 <0>         0.1477
      4 C3          0.8013   -0.3957    1.1887 C.3       1 <0>         0.3568
      5 H2          1.7968    0.0393    1.0998 H         1 <0>         0.0953
      6 N1          0.8876   -1.8598    1.3274 N.pl3     1 <0>        -0.6423
      7 N2          0.3202   -2.1680    2.5698 N.2       1 <0>        -0.2812
      8 C4         -0.0857   -1.1064    3.1805 C.2       1 <0>         0.2593
      9 N3          0.1549    0.0437    2.4368 N.pl3     1 <0>        -0.5872
     10 C5         -0.1556    1.3583    2.7997 C.ar      1 <0>         0.1085
     11 C6         -1.4822    1.7502    2.9254 C.ar      1 <0>        -0.0988
     12 C7         -1.7865    3.0488    3.2838 C.ar      1 <0>        -0.1346
     13 C8         -0.7702    3.9598    3.5179 C.ar      1 <0>         0.1235
     14 C9          0.5531    3.5714    3.3928 C.ar      1 <0>        -0.1373
     15 C10         0.8622    2.2722    3.0406 C.ar      1 <0>        -0.0920
     16 F1         -1.0701    5.2296    3.8684 F         1 <0>        -0.1218
     17 S1         -0.8517   -1.1124    4.7673 S.3       1 <0>         0.0949
     18 C11        -0.8908   -2.8662    5.2291 C.3       1 <0>        -0.0660
     19 C12        -1.5306   -3.0144    6.5855 C.2       1 <0>         0.4623
     20 N4         -1.9462   -1.9321    7.1982 N.2       1 <0>        -0.6069
     21 C13        -2.5232   -1.9591    8.4040 C.2       1 <0>         0.5580
     22 O1         -2.9022   -0.9333    8.9433 O.2       1 <0>        -0.4454
     23 C14        -2.6895   -3.2898    9.0710 C.2       1 <0>        -0.3241
     24 C15        -3.1791   -3.5447   10.2981 C.2       1 <0>         0.0854
     25 C16        -3.5114   -2.4641   11.3239 C.3       1 <0>        -0.0991
     26 C17        -2.7288   -2.8086   12.5982 C.3       1 <0>        -0.1214
     27 C18        -3.0145   -4.2477   13.0213 C.3       1 <0>        -0.1251
     28 C19        -2.5264   -5.2354   11.9573 C.3       1 <0>        -0.1013
     29 C20        -3.3360   -5.0135   10.6770 C.3       1 <0>        -0.0773
     30 H3         -4.3804   -5.3013   10.7972 H         1 <0>         0.1695
     31 S2         -2.5253   -5.8594    9.2680 S.3       1 <0>         0.0364
     32 C21        -2.1897   -4.4283    8.2729 C.2       1 <0>         0.2894
     33 N5         -1.6487   -4.2309    7.0940 N.2       1 <0>        -0.5381
     34 N6         -0.1152    1.4418   -0.1457 N.4       1 <0>        -0.3813
     35 C22        -0.9334    1.7999   -1.3106 C.3       1 <0>        -0.0130
     36 C23        -1.0645    3.3219   -1.3980 C.3       1 <0>        -0.1464
     37 C24         0.3286    3.9415   -1.5409 C.3       1 <0>        -0.1371
     38 C25         1.1962    3.5007   -0.3584 C.3       1 <0>        -0.1460
     39 C26         1.2436    1.9720   -0.3095 C.3       1 <0>        -0.0177
     40 H4         -1.9557   -0.0591    0.9955 H         1 <0>         0.0781
     41 H5         -2.0468   -0.4147   -0.7462 H         1 <0>         0.0846
     42 H6         -1.4186   -1.6409    0.3808 H         1 <0>         0.1080
     43 H7          1.2619   -2.4846    0.6868 H         1 <0>         0.4553
     44 H8         -2.2752    1.0402    2.7426 H         1 <0>         0.1470
     45 H9         -2.8178    3.3541    3.3813 H         1 <0>         0.1542
     46 H10         1.3441    4.2838    3.5751 H         1 <0>         0.1534
     47 H11         1.8944    1.9684    2.9478 H         1 <0>         0.1443
     48 H12        -1.4690   -3.4233    4.4918 H         1 <0>         0.1361
     49 H13         0.1266   -3.2559    5.2627 H         1 <0>         0.1366
     50 H14        -3.2035   -1.4878   10.9498 H         1 <0>         0.1140
     51 H15        -4.5813   -2.4642   11.5321 H         1 <0>         0.1078
     52 H16        -1.6616   -2.6932   12.4087 H         1 <0>         0.0701
     53 H17        -3.0261   -2.1312   13.3987 H         1 <0>         0.0891
     54 H18        -2.5039   -4.4530   13.9622 H         1 <0>         0.0869
     55 H19        -4.0881   -4.3737   13.1618 H         1 <0>         0.0767
     56 H20        -1.4690   -5.0634   11.7560 H         1 <0>         0.0851
     57 H21        -2.6730   -6.2560   12.3107 H         1 <0>         0.0973
     58 H22        -0.4586    1.4239   -2.2169 H         1 <0>         0.1308
     59 H23        -1.9235    1.3555   -1.2090 H         1 <0>         0.1310
     60 H24        -1.6708    3.5858   -2.2646 H         1 <0>         0.1147
     61 H25        -1.5395    3.6989   -0.4923 H         1 <0>         0.0854
     62 H26         0.7836    3.6046   -2.4723 H         1 <0>         0.0838
     63 H27         0.2453    5.0283   -1.5467 H         1 <0>         0.0961
     64 H28         2.2059    3.8924   -0.4818 H         1 <0>         0.1154
     65 H29         0.7682    3.8815    0.5689 H         1 <0>         0.0856
     66 H30         1.8607    1.6548    0.5311 H         1 <0>         0.1249
     67 H31         1.6720    1.5924   -1.2371 H         1 <0>         0.1338
     68 H32        -0.5297    1.8329    0.6869 H         1 <0>         0.4149
@<TRIPOS>BOND
     1    1    2 1
     2    1   40 1
     3    1   41 1
     4    1   42 1
     5    2    3 1
     6    2    4 1
     7    2   34 1
     8    4    5 1
     9    4    9 1
    10    4    6 1
    11    6    7 1
    12    6   43 1
    13    7    8 2
    14    8    9 1
    15    8   17 1
    16    9   10 1
    17   10   15 ar
    18   10   11 ar
    19   11   12 ar
    20   11   44 1
    21   12   13 ar
    22   12   45 1
    23   13   14 ar
    24   13   16 1
    25   14   15 ar
    26   14   46 1
    27   15   47 1
    28   17   18 1
    29   18   19 1
    30   18   48 1
    31   18   49 1
    32   19   33 1
    33   19   20 2
    34   20   21 1
    35   21   22 2
    36   21   23 1
    37   23   32 1
    38   23   24 2
    39   24   29 1
    40   24   25 1
    41   25   26 1
    42   25   50 1
    43   25   51 1
    44   26   27 1
    45   26   52 1
    46   26   53 1
    47   27   28 1
    48   27   54 1
    49   27   55 1
    50   28   29 1
    51   28   56 1
    52   28   57 1
    53   29   30 1
    54   29   31 1
    55   31   32 1
    56   32   33 2
    57   34   39 1
    58   34   35 1
    59   34   68 1
    60   35   36 1
    61   35   58 1
    62   35   59 1
    63   36   37 1
    64   36   60 1
    65   36   61 1
    66   37   38 1
    67   37   62 1
    68   37   63 1
    69   38   39 1
    70   38   64 1
    71   38   65 1
    72   39   66 1
    73   39   67 1
@<TRIPOS>MOLECULE
ZINC12097935
   74    78     0     0     0
SMALL
USER_CHARGES
N-[[2-[(3R)-3-hydroxy-1-piperidyl]-7-methyl-3-quinolyl]methyl]-3-methyl-N-[3-(2-oxopyrrolidin-1-yl)propyl]thiophene-2-carboxamide
@<TRIPOS>ATOM
      1 C1        -13.1545    5.0429   -4.9559 C.3       1 <0>        -0.1379
      2 C2        -11.9881    4.3032   -4.3531 C.ar      1 <0>         0.0096
      3 C3        -11.5320    4.6582   -3.0858 C.ar      1 <0>        -0.1077
      4 C4        -10.4798    4.0086   -2.5148 C.ar      1 <0>        -0.0502
      5 C5         -9.8462    2.9676   -3.2109 C.ar      1 <0>        -0.0991
      6 C6         -8.7569    2.2692   -2.6505 C.ar      1 <0>         0.0664
      7 C7         -8.1834    1.2734   -3.3819 C.ar      1 <0>        -0.1456
      8 C8         -8.6875    0.9607   -4.6528 C.ar      1 <0>         0.4444
      9 C9        -10.3084    2.6046   -4.4992 C.ar      1 <0>         0.1603
     10 C10       -11.3971    3.2977   -5.0554 C.ar      1 <0>        -0.1601
     11 N1         -8.0970   -0.0594   -5.3834 N.pl3     1 <0>        -0.4621
     12 C11        -8.7133   -1.3552   -5.0711 C.3       1 <0>         0.0604
     13 C12        -7.9446   -2.4716   -5.7817 C.3       1 <0>        -0.1150
     14 C13        -7.9730   -2.2227   -7.2922 C.3       1 <0>        -0.1588
     15 C14        -7.3697   -0.8464   -7.5862 C.3       1 <0>         0.1129
     16 H1         -6.3276   -0.8295   -7.2671 H         1 <0>         0.0937
     17 C15        -8.1550    0.2228   -6.8234 C.3       1 <0>         0.0484
     18 O1         -7.4435   -0.5829   -8.9887 O.3       1 <0>        -0.5698
     19 C16        -7.0132    0.5050   -2.8240 C.3       1 <0>         0.1703
     20 N2         -5.7641    1.0967   -3.3099 N.am      1 <0>        -0.6102
     21 C17        -5.1935    2.2630   -2.6315 C.3       1 <0>         0.0994
     22 C18        -4.2112    1.7969   -1.5551 C.3       1 <0>        -0.1663
     23 C19        -3.6153    3.0150   -0.8465 C.3       1 <0>         0.1302
     24 N3         -2.6747    2.5686    0.1842 N.am      1 <0>        -0.6225
     25 C20        -3.0442    2.2864    1.5762 C.3       1 <0>         0.1024
     26 C21        -1.7121    2.2836    2.3653 C.3       1 <0>        -0.1334
     27 C22        -0.6958    1.9179    1.2588 C.3       1 <0>        -0.1587
     28 C23        -1.3625    2.3646   -0.0237 C.2       1 <0>         0.5170
     29 O2         -0.7953    2.5170   -1.0848 O.2       1 <0>        -0.5217
     30 C24        -5.1400    0.5680   -4.3811 C.2       1 <0>         0.6115
     31 O3         -5.6576   -0.3446   -4.9979 O.2       1 <0>        -0.4897
     32 C25        -3.8378    1.0922   -4.8033 C.2       1 <0>        -0.2831
     33 C26        -3.0904    0.7742   -5.9264 C.2       1 <0>        -0.0193
     34 C27        -1.8921    1.4246   -6.0846 C.2       1 <0>        -0.1886
     35 C28        -1.4962    2.3236   -5.1457 C.2       1 <0>        -0.1837
     36 S1         -2.7982    2.3001   -4.0013 S.3       1 <0>         0.1788
     37 C29        -3.5747   -0.2379   -6.9325 C.3       1 <0>        -0.1105
     38 H2        -12.7880    5.8981   -5.5239 H         1 <0>         0.0941
     39 H3        -13.7048    4.3753   -5.6188 H         1 <0>         0.0819
     40 H4        -13.8142    5.3906   -4.1609 H         1 <0>         0.0872
     41 H5        -12.0187    5.4592   -2.5492 H         1 <0>         0.1529
     42 H6        -10.1347    4.2933   -1.5319 H         1 <0>         0.1608
     43 H7         -8.3842    2.5201   -1.6684 H         1 <0>         0.1791
     44 H8        -11.7629    3.0344   -6.0368 H         1 <0>         0.1503
     45 H9         -8.6828   -1.5218   -3.9944 H         1 <0>         0.0995
     46 H10        -9.7495   -1.3556   -5.4094 H         1 <0>         0.0569
     47 H11        -8.4117   -3.4317   -5.5622 H         1 <0>         0.0871
     48 H12        -6.9117   -2.4815   -5.4338 H         1 <0>         0.0980
     49 H13        -9.0032   -2.2522   -7.6470 H         1 <0>         0.0688
     50 H14        -7.3907   -2.9917   -7.8000 H         1 <0>         0.0819
     51 H15        -9.1938    0.2151   -7.1534 H         1 <0>         0.0508
     52 H16        -7.7192    1.2025   -7.0192 H         1 <0>         0.0960
     53 H17        -6.9668   -1.2228   -9.5348 H         1 <0>         0.3941
     54 H18        -7.0731   -0.5340   -3.1479 H         1 <0>         0.1178
     55 H19        -7.0361    0.5481   -1.7351 H         1 <0>         0.1067
     56 H20        -5.9931    2.8410   -2.1680 H         1 <0>         0.0876
     57 H21        -4.6693    2.8850   -3.3570 H         1 <0>         0.0910
     58 H22        -3.4117    1.2190   -2.0185 H         1 <0>         0.0853
     59 H23        -4.7355    1.1750   -0.8295 H         1 <0>         0.0770
     60 H24        -4.4148    3.5929   -0.3830 H         1 <0>         0.0817
     61 H25        -3.0910    3.6369   -1.5721 H         1 <0>         0.0849
     62 H26        -3.7055    3.0651    1.9562 H         1 <0>         0.0795
     63 H27        -3.5288    1.3127    1.6478 H         1 <0>         0.0714
     64 H28        -1.7230    1.5274    3.1503 H         1 <0>         0.0932
     65 H29        -1.5006    3.2698    2.7787 H         1 <0>         0.0845
     66 H30        -0.5199    0.8423    1.2427 H         1 <0>         0.1051
     67 H31         0.2410    2.4545    1.4087 H         1 <0>         0.1040
     68 H32        -1.2689    1.2207   -6.9428 H         1 <0>         0.1375
     69 H33        -0.5902    2.9108   -5.1191 H         1 <0>         0.1876
     70 H34        -4.1625    0.2654   -7.7001 H         1 <0>         0.0711
     71 H35        -2.7184   -0.7293   -7.3945 H         1 <0>         0.0668
     72 H36        -4.1934   -0.9818   -6.4306 H         1 <0>         0.0898
     73 N4         -9.7339    1.5942   -5.2386 N.ar      1 <0>        -0.5364
     74 H37       -10.0755    1.3375   -6.1722 H         1 <0>         0.4627
@<TRIPOS>BOND
     1    1    2 1
     2    1   38 1
     3    1   39 1
     4    1   40 1
     5    2   10 ar
     6    2    3 ar
     7    3    4 ar
     8    3   41 1
     9    4    5 ar
    10    4   42 1
    11    5    9 ar
    12    5    6 ar
    13    6    7 ar
    14    6   43 1
    15    7    8 ar
    16    7   19 1
    17    8   11 1
    18    8   73 ar
    19    9   10 ar
    20    9   73 ar
    21   10   44 1
    22   11   17 1
    23   11   12 1
    24   12   13 1
    25   12   45 1
    26   12   46 1
    27   13   14 1
    28   13   47 1
    29   13   48 1
    30   14   15 1
    31   14   49 1
    32   14   50 1
    33   15   16 1
    34   15   17 1
    35   15   18 1
    36   17   51 1
    37   17   52 1
    38   18   53 1
    39   19   20 1
    40   19   54 1
    41   19   55 1
    42   20   21 1
    43   20   30 am
    44   21   22 1
    45   21   56 1
    46   21   57 1
    47   22   23 1
    48   22   58 1
    49   22   59 1
    50   23   24 1
    51   23   60 1
    52   23   61 1
    53   24   28 am
    54   24   25 1
    55   25   26 1
    56   25   62 1
    57   25   63 1
    58   26   27 1
    59   26   64 1
    60   26   65 1
    61   27   28 1
    62   27   66 1
    63   27   67 1
    64   28   29 2
    65   30   31 2
    66   30   32 1
    67   32   36 1
    68   32   33 2
    69   33   34 1
    70   33   37 1
    71   34   35 2
    72   34   68 1
    73   35   36 1
    74   35   69 1
    75   37   70 1
    76   37   71 1
    77   37   72 1
    78   73   74 1
@<TRIPOS>MOLECULE
ZINC15067957
   67    72     0     0     0
SMALL
USER_CHARGES
5-[1-(2-furylmethyl)-4-hydroxy-4-piperidyl]-N-methyl-N-(8-quinolylmethyl)benzofuran-2-carboxamide
@<TRIPOS>ATOM
      1 C1          0.4192   -3.0281    1.6827 C.3       1 <0>         0.0818
      2 N1         -0.9797   -2.7442    1.3530 N.am      1 <0>        -0.5897
      3 C2         -1.3305   -2.2356    0.0247 C.3       1 <0>         0.1664
      4 C3         -1.2907   -0.7291    0.0370 C.ar      1 <0>        -0.0950
      5 C4         -2.4445   -0.0162    0.1505 C.ar      1 <0>        -0.0709
      6 C5         -2.4305    1.3768    0.1635 C.ar      1 <0>        -0.1177
      7 C6         -1.2591    2.0647    0.0685 C.ar      1 <0>        -0.0890
      8 C7         -0.0502    1.3620   -0.0558 C.ar      1 <0>        -0.1072
      9 C8         -0.0619   -0.0550   -0.0693 C.ar      1 <0>         0.1403
     10 N2          1.0874   -0.7287   -0.1815 N.ar      1 <0>        -0.4766
     11 C9          2.2360   -0.1048   -0.2804 C.ar      1 <0>         0.1349
     12 C10         2.3180    1.2861   -0.2733 C.ar      1 <0>        -0.1780
     13 C11         1.1816    2.0353   -0.1623 C.ar      1 <0>        -0.0524
     14 C12        -1.9439   -2.9509    2.2717 C.2       1 <0>         0.5918
     15 O1         -3.0963   -2.6514    2.0220 O.2       1 <0>        -0.5083
     16 C13        -1.6032   -3.5382    3.5752 C.2       1 <0>        -0.0079
     17 C14        -2.5007   -3.8989    4.5285 C.2       1 <0>        -0.1166
     18 C15        -1.7167   -4.4309    5.6425 C.ar      1 <0>        -0.1332
     19 C16        -2.0383   -4.9574    6.8959 C.ar      1 <0>        -0.0429
     20 C17        -1.0414   -5.3805    7.7288 C.ar      1 <0>        -0.1457
     21 C18         0.2877   -5.2904    7.3376 C.ar      1 <0>        -0.0843
     22 C19         0.6259   -4.7742    6.1056 C.ar      1 <0>        -0.0965
     23 C20        -0.3712   -4.3373    5.2408 C.ar      1 <0>         0.0710
     24 O2         -0.3516   -3.8058    4.0031 O.3       1 <0>        -0.1716
     25 C21        -1.3867   -5.9486    9.0812 C.3       1 <0>         0.1790
     26 C22        -1.4210   -4.8209   10.1164 C.3       1 <0>        -0.1694
     27 C23        -1.7103   -5.4121   11.4981 C.3       1 <0>        -0.0040
     28 C24        -0.6501   -7.5045   10.8897 C.3       1 <0>         0.0024
     29 C25        -0.3275   -6.9760    9.4902 C.3       1 <0>        -0.1339
     30 C26        -0.8386   -6.8741   13.2194 C.3       1 <0>         0.0956
     31 C27        -1.0987   -5.7066   14.1360 C.2       1 <0>        -0.1085
     32 C28        -2.3072   -5.2031   14.4449 C.2       1 <0>        -0.1421
     33 C29        -2.0868   -4.1225   15.3297 C.2       1 <0>        -0.2194
     34 C30        -0.7568   -4.0304   15.5085 C.2       1 <0>         0.0143
     35 O3         -0.1637   -4.9960   14.7876 O.3       1 <0>        -0.1679
     36 O4         -2.6669   -6.5807    9.0209 O.3       1 <0>        -0.5482
     37 H1          0.8530   -2.1698    2.1957 H         1 <0>         0.0558
     38 H2          0.4693   -3.9026    2.3315 H         1 <0>         0.0783
     39 H3          0.9761   -3.2233    0.7662 H         1 <0>         0.0897
     40 H4         -2.3337   -2.5704   -0.2393 H         1 <0>         0.0959
     41 H5         -0.6172   -2.6119   -0.7086 H         1 <0>         0.1015
     42 H6         -3.3862   -0.5388    0.2315 H         1 <0>         0.1359
     43 H7         -3.3606    1.9183    0.2547 H         1 <0>         0.1313
     44 H8         -1.2610    3.1446    0.0797 H         1 <0>         0.1322
     45 H9          3.1429   -0.6844   -0.3695 H         1 <0>         0.1602
     46 H10         3.2793    1.7713   -0.3561 H         1 <0>         0.1387
     47 H11         1.2266    3.1144   -0.1553 H         1 <0>         0.1395
     48 H12        -3.5758   -3.8110    4.4747 H         1 <0>         0.1742
     49 H13        -3.0706   -5.0300    7.2050 H         1 <0>         0.1307
     50 H14         1.0652   -5.6291    8.0063 H         1 <0>         0.1377
     51 H15         1.6634   -4.7089    5.8125 H         1 <0>         0.1418
     52 H16        -0.4566   -4.3132   10.1335 H         1 <0>         0.0996
     53 H17        -2.2031   -4.1089    9.8531 H         1 <0>         0.1162
     54 H18        -2.6815   -5.9068   11.4843 H         1 <0>         0.1369
     55 H19        -1.7200   -4.6135   12.2399 H         1 <0>         0.1311
     56 H20        -1.6263   -7.9894   10.8787 H         1 <0>         0.1418
     57 H21         0.1102   -8.2256   11.1898 H         1 <0>         0.1340
     58 H22        -0.3290   -7.8027    8.7797 H         1 <0>         0.1257
     59 H23         0.6546   -6.5034    9.4965 H         1 <0>         0.1047
     60 H24        -1.6823   -7.5630   13.2600 H         1 <0>         0.1568
     61 H25         0.0676   -7.3903   13.5367 H         1 <0>         0.1440
     62 H26        -3.2626   -5.5561   14.0856 H         1 <0>         0.1609
     63 H27        -2.8414   -3.4919   15.7760 H         1 <0>         0.1636
     64 H28        -0.2518   -3.3061   16.1304 H         1 <0>         0.2184
     65 H29        -3.3873   -5.9868    8.7691 H         1 <0>         0.3907
     66 N3         -0.6423   -6.3746   11.8429 N.4       1 <0>        -0.3955
     67 H30         0.2657   -5.8984   11.7873 H         1 <0>         0.4268
@<TRIPOS>BOND
     1    1    2 1
     2    1   37 1
     3    1   38 1
     4    1   39 1
     5    2    3 1
     6    2   14 am
     7    3    4 1
     8    3   40 1
     9    3   41 1
    10    4    9 ar
    11    4    5 ar
    12    5    6 ar
    13    5   42 1
    14    6    7 ar
    15    6   43 1
    16    7    8 ar
    17    7   44 1
    18    8   13 ar
    19    8    9 ar
    20    9   10 ar
    21   10   11 ar
    22   11   12 ar
    23   11   45 1
    24   12   13 ar
    25   12   46 1
    26   13   47 1
    27   14   15 2
    28   14   16 1
    29   16   24 1
    30   16   17 2
    31   17   18 1
    32   17   48 1
    33   18   23 ar
    34   18   19 ar
    35   19   20 ar
    36   19   49 1
    37   20   21 ar
    38   20   25 1
    39   21   22 ar
    40   21   50 1
    41   22   23 ar
    42   22   51 1
    43   23   24 1
    44   25   29 1
    45   25   26 1
    46   25   36 1
    47   26   27 1
    48   26   52 1
    49   26   53 1
    50   27   54 1
    51   27   55 1
    52   27   66 1
    53   28   29 1
    54   28   56 1
    55   28   57 1
    56   28   66 1
    57   29   58 1
    58   29   59 1
    59   30   31 1
    60   30   60 1
    61   30   61 1
    62   30   66 1
    63   31   35 1
    64   31   32 2
    65   32   33 1
    66   32   62 1
    67   33   34 2
    68   33   63 1
    69   34   35 1
    70   34   64 1
    71   36   65 1
    72   66   67 1
@<TRIPOS>MOLECULE
ZINC22934965
   60    62     0     0     0
SMALL
USER_CHARGES
3-[[2-[4-[(5-bromo-2-thienyl)methyl]piperazin-1-yl]acetyl]amino]-N,N-diethyl-benzamide
@<TRIPOS>ATOM
      1 C1          4.3820    4.9589   -2.3470 C.3       1 <0>        -0.1689
      2 C2          2.8713    4.9172   -2.1084 C.3       1 <0>         0.1058
      3 N1          2.4328    3.5238   -1.9967 N.am      1 <0>        -0.6039
      4 C3          2.4967    2.8371   -0.7042 C.3       1 <0>         0.0927
      5 C4          1.2957    3.2467    0.1508 C.3       1 <0>        -0.1852
      6 C5          1.9707    2.8736   -3.0831 C.2       1 <0>         0.5573
      7 O1          1.9740    3.4230   -4.1673 O.2       1 <0>        -0.5278
      8 C6          1.4599    1.4919   -2.9560 C.ar      1 <0>        -0.1077
      9 C7          0.6071    1.1544   -1.9032 C.ar      1 <0>        -0.1090
     10 C8          0.1283   -0.1346   -1.7894 C.ar      1 <0>        -0.1024
     11 C9          0.4977   -1.0980   -2.7097 C.ar      1 <0>        -0.1110
     12 C10         1.3501   -0.7736   -3.7579 C.ar      1 <0>         0.1199
     13 C11         1.8328    0.5200   -3.8839 C.ar      1 <0>        -0.0672
     14 N2          1.7217   -1.7527   -4.6863 N.am      1 <0>        -0.6592
     15 C12         1.8814   -1.4250   -5.9839 C.2       1 <0>         0.4991
     16 O2          1.7830   -0.2679   -6.3337 O.2       1 <0>        -0.5097
     17 C13         2.1823   -2.4964   -7.0001 C.3       1 <0>        -0.0249
     18 N3          2.3099   -1.8872   -8.3307 N.4       1 <0>        -0.3908
     19 C14         1.0257   -1.3330   -8.7815 C.3       1 <0>        -0.0061
     20 C15         1.2184   -0.6396  -10.1322 C.3       1 <0>         0.0221
     21 N4          1.7422   -1.6072  -11.1064 N.3       1 <0>        -0.5356
     22 C16         3.0264   -2.1614  -10.6556 C.3       1 <0>         0.0253
     23 C17         2.8337   -2.8549   -9.3049 C.3       1 <0>         0.0027
     24 C18         1.8698   -0.9980  -12.4370 C.3       1 <0>         0.1395
     25 C19         0.6137   -0.2309  -12.7609 C.2       1 <0>        -0.1611
     26 C20         0.3179    1.0673  -12.5089 C.2       1 <0>        -0.1432
     27 C21        -0.9117    1.5633  -12.9008 C.2       1 <0>        -0.1189
     28 C22        -1.7853    0.7352  -13.5260 C.2       1 <0>        -0.1684
     29 S1         -0.8673   -0.7949  -13.5830 S.3       1 <0>         0.1351
     30 Br1        -3.5217    1.1071  -14.1759 Br        1 <0>         0.0522
     31 H1          4.7112    6.0051   -2.4309 H         1 <0>         0.0715
     32 H2          4.6211    4.4235   -3.2777 H         1 <0>         0.0573
     33 H3          4.8997    4.4780   -1.5040 H         1 <0>         0.0571
     34 H4          2.6322    5.4526   -1.1777 H         1 <0>         0.0820
     35 H5          2.3535    5.3981   -2.9514 H         1 <0>         0.0888
     36 H6          2.4779    1.7492   -0.8657 H         1 <0>         0.0874
     37 H7          3.4269    3.1149   -0.1869 H         1 <0>         0.0843
     38 H8          1.3436    2.7311    1.1213 H         1 <0>         0.0771
     39 H9          0.3655    2.9688   -0.3665 H         1 <0>         0.0678
     40 H10         1.3145    4.3346    0.3122 H         1 <0>         0.0670
     41 H11         0.3192    1.9033   -1.1802 H         1 <0>         0.1535
     42 H12        -0.5340   -0.3929   -0.9763 H         1 <0>         0.1406
     43 H13         0.1227   -2.1062   -2.6133 H         1 <0>         0.1348
     44 H14         2.4952    0.7742   -4.6982 H         1 <0>         0.1427
     45 H15         1.8834   -2.7897   -4.3570 H         1 <0>         0.4478
     46 H16         3.1242   -2.9990   -6.7350 H         1 <0>         0.1640
     47 H17         1.3645   -3.2320   -7.0105 H         1 <0>         0.1615
     48 H18         0.2923   -2.1460   -8.8869 H         1 <0>         0.1328
     49 H19         0.6613   -0.6040   -8.0427 H         1 <0>         0.1494
     50 H20         0.2525   -0.2490  -10.4849 H         1 <0>         0.1277
     51 H21         1.9307    0.1910  -10.0197 H         1 <0>         0.0653
     52 H22         3.3908   -2.8903  -11.3945 H         1 <0>         0.1293
     53 H23         3.7598   -1.3484  -10.5501 H         1 <0>         0.0655
     54 H24         3.7993   -3.2454   -8.9510 H         1 <0>         0.1398
     55 H25         2.1210   -3.6854   -9.4163 H         1 <0>         0.1393
     56 H26         2.7303   -0.3129  -12.4456 H         1 <0>         0.0742
     57 H27         2.0217   -1.7869  -13.1884 H         1 <0>         0.1089
     58 H28         1.0319    1.7050  -12.0090 H         1 <0>         0.1393
     59 H29        -1.1728    2.5941  -12.7118 H         1 <0>         0.1457
     60 H30         3.0293   -1.0586   -8.2542 H         1 <0>         0.4469
@<TRIPOS>BOND
     1    1    2 1
     2    1   31 1
     3    1   32 1
     4    1   33 1
     5    2    3 1
     6    2   34 1
     7    2   35 1
     8    3    4 1
     9    3    6 am
    10    4    5 1
    11    4   36 1
    12    4   37 1
    13    5   38 1
    14    5   39 1
    15    5   40 1
    16    6    7 2
    17    6    8 1
    18    8   13 ar
    19    8    9 ar
    20    9   10 ar
    21    9   41 1
    22   10   11 ar
    23   10   42 1
    24   11   12 ar
    25   11   43 1
    26   12   13 ar
    27   12   14 1
    28   13   44 1
    29   14   15 am
    30   14   45 1
    31   15   16 2
    32   15   17 1
    33   17   18 1
    34   17   46 1
    35   17   47 1
    36   18   23 1
    37   18   19 1
    38   18   60 1
    39   19   20 1
    40   19   48 1
    41   19   49 1
    42   20   21 1
    43   20   50 1
    44   20   51 1
    45   21   22 1
    46   21   24 1
    47   22   23 1
    48   22   52 1
    49   22   53 1
    50   23   54 1
    51   23   55 1
    52   24   25 1
    53   24   56 1
    54   24   57 1
    55   25   29 1
    56   25   26 2
    57   26   27 1
    58   26   58 1
    59   27   28 2
    60   27   59 1
    61   28   29 1
    62   28   30 1
@<TRIPOS>MOLECULE
ZINC40988419
   67    70     0     0     0
SMALL
USER_CHARGES

@<TRIPOS>ATOM
      1 C1          0.1071    0.4900   -0.5070 C.3       1 <0>        -0.1943
      2 C2          1.5458    0.8954   -0.8337 C.3       1 <0>        -0.0376
      3 N1          2.4771   -0.0261   -0.1692 N.4       1 <0>        -0.3857
      4 C3          3.8579    0.4086   -0.4190 C.3       1 <0>        -0.0295
      5 C4          4.8285   -0.6608    0.0861 C.3       1 <0>        -0.1932
      6 C5          2.2177   -0.0262    1.2767 C.3       1 <0>         0.0641
      7 H1          3.1336   -0.2806    1.8101 H         1 <0>         0.1580
      8 C6          1.1354   -1.0580    1.6007 C.3       1 <0>         0.0774
      9 N2          1.5371   -2.3670    1.0798 N.am      1 <0>        -0.7459
     10 C7          0.6851   -3.4091    1.1462 C.2       1 <0>         0.6192
     11 O1         -0.4480   -3.2428    1.5542 O.2       1 <0>        -0.4981
     12 C8          1.1279   -4.7533    0.7233 C.2       1 <0>        -0.0192
     13 C9          0.3351   -5.9102    0.6391 C.2       1 <0>        -0.1312
     14 C10         1.1605   -6.8971    0.2112 C.2       1 <0>         0.0256
     15 N3          2.3780   -6.3540    0.0476 N.pl3     1 <0>        -0.2544
     16 N4          2.3460   -5.1007    0.3449 N.2       1 <0>        -0.2704
     17 C11         3.5667   -7.0792   -0.4076 C.3       1 <0>         0.1440
     18 H2          3.3157   -8.1257   -0.5805 H         1 <0>         0.1369
     19 C12         4.6743   -6.9794    0.6544 C.3       1 <0>        -0.1362
     20 C13         6.0208   -7.4567    0.0591 C.3       1 <0>        -0.5743
     21 S1          5.8280   -7.0784   -1.7304 S.o2      1 <0>         2.3795
     22 O2          6.7088   -6.0184   -2.0764 O.2       1 <0>        -0.9220
     23 O3          5.8720   -8.2928   -2.4670 O.2       1 <0>        -0.9158
     24 C14         4.0989   -6.4423   -1.7231 C.3       1 <0>        -0.5994
     25 C15         0.7210   -8.3209   -0.0145 C.3       1 <0>        -0.0571
     26 C16        -0.6216   -8.5303    0.6973 C.3       1 <0>        -0.1163
     27 C17        -1.5903   -7.4098    0.3094 C.3       1 <0>        -0.1240
     28 C18        -1.1270   -6.0902    0.9414 C.3       1 <0>        -0.0449
     29 C19         1.7514    1.3418    1.7035 C.ar      1 <0>        -0.1254
     30 C20         0.7706    1.4672    2.6696 C.ar      1 <0>        -0.0806
     31 C21         0.3425    2.7216    3.0615 C.ar      1 <0>        -0.0923
     32 C22         0.8957    3.8519    2.4866 C.ar      1 <0>        -0.0135
     33 C23         1.8772    3.7258    1.5197 C.ar      1 <0>        -0.0961
     34 C24         2.3085    2.4709    1.1327 C.ar      1 <0>        -0.1242
     35 Cl1         0.3581    5.4278    2.9778 Cl        1 <0>        -0.0355
     36 H3         -0.1062    0.7174    0.5374 H         1 <0>         0.0899
     37 H4         -0.5804    1.0430   -1.1471 H         1 <0>         0.1065
     38 H5         -0.0170   -0.5792   -0.6788 H         1 <0>         0.0805
     39 H6          1.6995    0.8524   -1.9119 H         1 <0>         0.1330
     40 H7          1.7261    1.9110   -0.4812 H         1 <0>         0.1508
     41 H8          4.0044    0.5562   -1.4890 H         1 <0>         0.1388
     42 H9          4.0444    1.3456    0.1059 H         1 <0>         0.1378
     43 H10         4.6275   -0.8665    1.1374 H         1 <0>         0.0798
     44 H11         4.6971   -1.5740   -0.4944 H         1 <0>         0.0850
     45 H12         5.8524   -0.3038   -0.0250 H         1 <0>         0.1135
     46 H13         1.0054   -1.1212    2.6810 H         1 <0>         0.1151
     47 H14         0.1955   -0.7559    1.1386 H         1 <0>         0.1207
     48 H15         2.4164   -2.4837    0.6871 H         1 <0>         0.4009
     49 H16         4.7699   -5.9440    0.9814 H         1 <0>         0.1029
     50 H17         4.4142   -7.6049    1.5084 H         1 <0>         0.1083
     51 H18         6.8524   -6.8956    0.4853 H         1 <0>         0.1530
     52 H19         6.1548   -8.5271    0.2156 H         1 <0>         0.1504
     53 H20         3.5429   -6.8026   -2.5886 H         1 <0>         0.1525
     54 H21         4.0795   -5.3537   -1.6700 H         1 <0>         0.1508
     55 H22         0.6028   -8.5038   -1.0826 H         1 <0>         0.0898
     56 H23         1.4646   -9.0042    0.3956 H         1 <0>         0.0837
     57 H24        -1.0424   -9.4917    0.4028 H         1 <0>         0.0805
     58 H25        -0.4661   -8.5181    1.7761 H         1 <0>         0.0709
     59 H26        -1.6097   -7.3059   -0.7754 H         1 <0>         0.0662
     60 H27        -2.5901   -7.6534    0.6689 H         1 <0>         0.0764
     61 H28        -1.2774   -6.1268    2.0203 H         1 <0>         0.0804
     62 H29        -1.6944   -5.2611    0.5186 H         1 <0>         0.0827
     63 H30         0.3386    0.5848    3.1181 H         1 <0>         0.1484
     64 H31        -0.4240    2.8194    3.8160 H         1 <0>         0.1509
     65 H32         2.3092    4.6077    1.0703 H         1 <0>         0.1492
     66 H33         3.0781    2.3724    0.3814 H         1 <0>         0.1418
     67 H34         2.3465   -0.9576   -0.5344 H         1 <0>         0.4211
@<TRIPOS>BOND
     1    1    2 1
     2    1   36 1
     3    1   37 1
     4    1   38 1
     5    2    3 1
     6    2   39 1
     7    2   40 1
     8    3    4 1
     9    3    6 1
    10    3   67 1
    11    4    5 1
    12    4   41 1
    13    4   42 1
    14    5   43 1
    15    5   44 1
    16    5   45 1
    17    6    7 1
    18    6    8 1
    19    6   29 1
    20    8    9 1
    21    8   46 1
    22    8   47 1
    23    9   10 am
    24    9   48 1
    25   10   11 2
    26   10   12 1
    27   12   16 2
    28   12   13 1
    29   13   28 1
    30   13   14 2
    31   14   15 1
    32   14   25 1
    33   15   16 1
    34   15   17 1
    35   17   18 1
    36   17   24 1
    37   17   19 1
    38   19   20 1
    39   19   49 1
    40   19   50 1
    41   20   21 1
    42   20   51 1
    43   20   52 1
    44   21   22 2
    45   21   23 2
    46   21   24 1
    47   24   53 1
    48   24   54 1
    49   25   26 1
    50   25   55 1
    51   25   56 1
    52   26   27 1
    53   26   57 1
    54   26   58 1
    55   27   28 1
    56   27   59 1
    57   27   60 1
    58   28   61 1
    59   28   62 1
    60   29   34 ar
    61   29   30 ar
    62   30   31 ar
    63   30   63 1
    64   31   32 ar
    65   31   64 1
    66   32   33 ar
    67   32   35 1
    68   33   34 ar
    69   33   65 1
    70   34   66 1
@<TRIPOS>MOLECULE
ZINC63372758
   62    66     0     0     0
SMALL
USER_CHARGES

@<TRIPOS>ATOM
      1 C1         -0.0187    1.5258    0.0104 C.3       1 <0>        -0.1682
      2 C2          0.0021   -0.0041    0.0020 C.3       1 <0>         0.1735
      3 C3          0.7707   -0.4821   -1.2348 C.3       1 <0>         0.0918
      4 H1          0.6724   -1.5612   -1.3532 H         1 <0>         0.1745
      5 C4          2.2280   -0.0968   -1.0134 C.2       1 <0>         0.0603
      6 C5          2.5859    0.6344   -2.0619 C.ar      1 <0>        -0.1450
      7 C6          3.8770    1.2246   -2.4499 C.ar      1 <0>        -0.0010
      8 C7          3.8861    1.9394   -3.6061 C.ar      1 <0>        -0.1580
      9 C8          2.7535    2.1241   -4.4051 C.ar      1 <0>         0.0609
     10 C9          1.5275    1.6131   -4.1278 C.ar      1 <0>        -0.2054
     11 C10         1.3932    0.8374   -2.9396 C.ar      1 <0>         0.3364
     12 N1          0.3387    0.2100   -2.4498 N.pl3     1 <0>        -0.5694
     13 C11         2.9786   -0.4669    0.2422 C.3       1 <0>        -0.0154
     14 H2          3.1418   -1.5441    0.2751 H         1 <0>         0.1422
     15 C12         2.1006   -0.0312    1.4283 C.3       1 <0>         0.1081
     16 N2          0.7125   -0.4745    1.1925 N.am      1 <0>        -0.6059
     17 C13         0.1521   -1.2956    2.0873 C.2       1 <0>         0.5176
     18 O1          0.8326   -1.6524    3.0257 O.2       1 <0>        -0.4961
     19 C14        -1.2488   -1.8055    2.0158 C.3       1 <0>         0.0914
     20 N3         -1.9586   -1.2978    0.8537 N.am      1 <0>        -0.5849
     21 C15        -1.4022   -0.5059   -0.0605 C.2       1 <0>         0.5174
     22 O2         -2.0870   -0.1566   -0.9986 O.2       1 <0>        -0.5230
     23 C16        -3.3567   -1.6943    0.6683 C.3       1 <0>         0.1029
     24 C17        -4.2701   -0.6844    1.3659 C.3       1 <0>        -0.1332
     25 C18        -5.7302   -1.0986    1.1723 C.3       1 <0>        -0.1144
     26 C19        -6.6436   -0.0887    1.8699 C.3       1 <0>        -0.1207
     27 C20        -8.1037   -0.5029    1.6762 C.3       1 <0>         0.0735
     28 O3         -8.9568    0.4403    2.3278 O.3       1 <0>        -0.5764
     29 C21         4.3005    0.2556    0.2842 C.ar      1 <0>        -0.0978
     30 C22         4.3328    1.6376    0.2858 C.ar      1 <0>        -0.1082
     31 C23         5.5449    2.3007    0.3248 C.ar      1 <0>        -0.0874
     32 C24         6.7257    1.5812    0.3623 C.ar      1 <0>        -0.0773
     33 C25         6.6929    0.1984    0.3607 C.ar      1 <0>        -0.0827
     34 C26         5.4801   -0.4639    0.3270 C.ar      1 <0>        -0.0874
     35 Br1         8.3844    2.4879    0.4150 Br        1 <0>        -0.0241
     36 H3          1.0039    1.9031    0.0027 H         1 <0>         0.0799
     37 H4         -0.5459    1.8868   -0.8726 H         1 <0>         0.0906
     38 H5         -0.5289    1.8773    0.9072 H         1 <0>         0.0952
     39 H6          4.7662    1.0974   -1.8503 H         1 <0>         0.1699
     40 H7          4.8157    2.3880   -3.9238 H         1 <0>         0.1561
     41 H8          2.8618    2.7136   -5.3035 H         1 <0>         0.1602
     42 H9          0.6860    1.7876   -4.7818 H         1 <0>         0.1713
     43 H10         2.4767   -0.4842    2.3456 H         1 <0>         0.1400
     44 H11         2.1255    1.0546    1.5204 H         1 <0>         0.0972
     45 H12        -1.2271   -2.8943    1.9694 H         1 <0>         0.1278
     46 H13        -1.7821   -1.5020    2.9167 H         1 <0>         0.1285
     47 H14        -3.5891   -1.7195   -0.3964 H         1 <0>         0.0999
     48 H15        -3.5138   -2.6837    1.0980 H         1 <0>         0.0938
     49 H16        -4.0377   -0.6592    2.4305 H         1 <0>         0.0692
     50 H17        -4.1130    0.3049    0.9362 H         1 <0>         0.0701
     51 H18        -5.9626   -1.1238    0.1076 H         1 <0>         0.0692
     52 H19        -5.8873   -2.0880    1.6019 H         1 <0>         0.0699
     53 H20        -6.4112   -0.0635    2.9345 H         1 <0>         0.0708
     54 H21        -6.4865    0.9006    1.4402 H         1 <0>         0.0694
     55 H22        -8.3361   -0.5281    0.6116 H         1 <0>         0.0456
     56 H23        -8.2608   -1.4923    2.1059 H         1 <0>         0.0465
     57 H24        -9.8993    0.2401    2.2461 H         1 <0>         0.3844
     58 H25         3.4108    2.1993    0.2562 H         1 <0>         0.1308
     59 H26         5.5701    3.3804    0.3257 H         1 <0>         0.1435
     60 H27         7.6146   -0.3638    0.3900 H         1 <0>         0.1451
     61 H28         5.4543   -1.5435    0.3299 H         1 <0>         0.1419
     62 H29        -0.5595    0.2062   -2.8159 H         1 <0>         0.4648
@<TRIPOS>BOND
     1    1    2 1
     2    1   36 1
     3    1   37 1
     4    1   38 1
     5    2   16 1
     6    2   21 1
     7    2    3 1
     8    3    4 1
     9    3   12 1
    10    3    5 1
    11    5    6 2
    12    5   13 1
    13    6   11 ar
    14    6    7 ar
    15    7    8 ar
    16    7   39 1
    17    8    9 ar
    18    8   40 1
    19    9   10 ar
    20    9   41 1
    21   10   11 ar
    22   10   42 1
    23   11   12 2
    24   12   62 1
    25   13   14 1
    26   13   15 1
    27   13   29 1
    28   15   16 1
    29   15   43 1
    30   15   44 1
    31   16   17 am
    32   17   18 2
    33   17   19 1
    34   19   20 1
    35   19   45 1
    36   19   46 1
    37   20   21 am
    38   20   23 1
    39   21   22 2
    40   23   24 1
    41   23   47 1
    42   23   48 1
    43   24   25 1
    44   24   49 1
    45   24   50 1
    46   25   26 1
    47   25   51 1
    48   25   52 1
    49   26   27 1
    50   26   53 1
    51   26   54 1
    52   27   28 1
    53   27   55 1
    54   27   56 1
    55   28   57 1
    56   29   34 ar
    57   29   30 ar
    58   30   31 ar
    59   30   58 1
    60   31   32 ar
    61   31   59 1
    62   32   33 ar
    63   32   35 1
    64   33   34 ar
    65   33   60 1
    66   34   61 1
@<TRIPOS>MOLECULE
ZINC11786028
   65    68     0     0     0
SMALL
USER_CHARGES
methyl 3-[(2,3-dimethylbenzoyl)amino]-6-[[(2R)-2-methoxycarbonyl-1-piperidyl]methyl]thieno[5,4-b]pyridine-2-carboxylate
@<TRIPOS>ATOM
      1 C1          3.8212    7.4736    1.3407 C.3       1 <0>        -0.1198
      2 C2          4.6015    6.2480    1.7405 C.ar      1 <0>        -0.0951
      3 C3          5.9164    6.3712    2.1542 C.ar      1 <0>        -0.0768
      4 C4          6.6399    5.2513    2.5230 C.ar      1 <0>        -0.1261
      5 C5          6.0540    4.0029    2.4806 C.ar      1 <0>        -0.0800
      6 C6          4.7282    3.8714    2.0643 C.ar      1 <0>        -0.1507
      7 C7          4.0055    5.0052    1.6880 C.ar      1 <0>        -0.0164
      8 C8          2.5757    4.8721    1.2309 C.3       1 <0>        -0.1259
      9 C9          4.0940    2.5373    2.0164 C.2       1 <0>         0.5707
     10 O1          2.9091    2.4362    1.7646 O.2       1 <0>        -0.5125
     11 N1          4.8295    1.4327    2.2519 N.am      1 <0>        -0.6573
     12 C10         4.2610    0.1735    2.0986 C.2       1 <0>         0.2408
     13 C11         2.9539   -0.1277    2.6605 C.ar      1 <0>        -0.1281
     14 C12         2.0914    0.7202    3.3997 C.ar      1 <0>         0.0358
     15 C13         0.8873    0.2250    3.8407 C.ar      1 <0>        -0.1662
     16 C14         0.5239   -1.0852    3.5653 C.ar      1 <0>         0.1126
     17 N2          1.3287   -1.8711    2.8774 N.ar      1 <0>        -0.4287
     18 C15         2.4914   -1.4439    2.4336 C.ar      1 <0>         0.0929
     19 S1          3.7981   -2.2008    1.4995 S.3       1 <0>         0.2229
     20 C16         4.9219   -0.8207    1.4110 C.2       1 <0>        -0.2258
     21 C17         6.1913   -0.7602    0.7831 C.2       1 <0>         0.5513
     22 O2          6.8780    0.2381    0.8943 O.2       1 <0>        -0.4857
     23 O3          6.6383   -1.8098    0.0621 O.3       1 <0>        -0.3427
     24 C18         7.9263   -1.6798   -0.5429 C.3       1 <0>         0.0339
     25 C19        -0.7997   -1.6136    4.0551 C.3       1 <0>         0.0486
     26 C20        -1.2664   -1.9275    1.7005 C.3       1 <0>        -0.0009
     27 C21        -2.2845   -1.6393    0.5948 C.3       1 <0>        -0.1493
     28 C22        -3.5912   -2.3739    0.9069 C.3       1 <0>        -0.1329
     29 C23        -4.1047   -1.9255    2.2779 C.3       1 <0>        -0.1364
     30 C24        -3.0339   -2.2053    3.3348 C.3       1 <0>         0.0442
     31 H1         -2.8272   -3.2750    3.3681 H         1 <0>         0.1753
     32 C25        -3.5273   -1.7473    4.6831 C.2       1 <0>         0.4537
     33 O4         -3.3205   -0.6145    5.0492 O.2       1 <0>        -0.4861
     34 O5         -4.1964   -2.5977    5.4773 O.3       1 <0>        -0.3343
     35 C26        -4.6418   -2.0881    6.7619 C.3       1 <0>         0.0322
     36 H2          3.9493    7.6537    0.2733 H         1 <0>         0.0757
     37 H3          2.7645    7.3187    1.5587 H         1 <0>         0.0724
     38 H4          4.1853    8.3349    1.9007 H         1 <0>         0.0722
     39 H5          6.3799    7.3461    2.1889 H         1 <0>         0.1331
     40 H6          7.6655    5.3544    2.8452 H         1 <0>         0.1346
     41 H7          6.6198    3.1293    2.7691 H         1 <0>         0.1261
     42 H8          1.9158    4.8672    2.0984 H         1 <0>         0.0752
     43 H9          2.3208    5.7126    0.5853 H         1 <0>         0.0664
     44 H10         2.4561    3.9403    0.6782 H         1 <0>         0.0925
     45 H11         5.7554    1.5164    2.5284 H         1 <0>         0.4280
     46 H12         2.3760    1.7400    3.6132 H         1 <0>         0.1562
     47 H13         0.2182    0.8611    4.4012 H         1 <0>         0.1548
     48 H14         7.9213   -0.8335   -1.2298 H         1 <0>         0.0674
     49 H15         8.6763   -1.5154    0.2308 H         1 <0>         0.0681
     50 H16         8.1638   -2.5914   -1.0913 H         1 <0>         0.1120
     51 H17        -0.6940   -2.6643    4.3250 H         1 <0>         0.1531
     52 H18        -1.1174   -1.0442    4.9286 H         1 <0>         0.1514
     53 H19        -0.3395   -1.3944    1.4886 H         1 <0>         0.1316
     54 H20        -1.0680   -2.9985    1.7414 H         1 <0>         0.1419
     55 H21        -1.8915   -1.9859   -0.3610 H         1 <0>         0.1185
     56 H22        -2.4731   -0.5670    0.5434 H         1 <0>         0.0896
     57 H23        -3.4109   -3.4488    0.9192 H         1 <0>         0.0898
     58 H24        -4.3339   -2.1378    0.1447 H         1 <0>         0.1040
     59 H25        -5.0123   -2.4764    2.5247 H         1 <0>         0.1245
     60 H26        -4.3224   -0.8577    2.2542 H         1 <0>         0.0980
     61 H27        -5.1676   -2.8751    7.3025 H         1 <0>         0.1198
     62 H28        -3.7787   -1.7626    7.3426 H         1 <0>         0.0754
     63 H29        -5.3134   -1.2441    6.6049 H         1 <0>         0.0767
     64 N3         -1.8103   -1.4505    2.9897 N.4       1 <0>        -0.3810
     65 H30        -2.0463   -0.4550    2.9036 H         1 <0>         0.4347
@<TRIPOS>BOND
     1    1    2 1
     2    1   36 1
     3    1   37 1
     4    1   38 1
     5    2    7 ar
     6    2    3 ar
     7    3    4 ar
     8    3   39 1
     9    4    5 ar
    10    4   40 1
    11    5    6 ar
    12    5   41 1
    13    6    7 ar
    14    6    9 1
    15    7    8 1
    16    8   42 1
    17    8   43 1
    18    8   44 1
    19    9   10 2
    20    9   11 am
    21   11   12 1
    22   11   45 1
    23   12   20 2
    24   12   13 1
    25   13   18 ar
    26   13   14 ar
    27   14   15 ar
    28   14   46 1
    29   15   16 ar
    30   15   47 1
    31   16   17 ar
    32   16   25 1
    33   17   18 ar
    34   18   19 1
    35   19   20 1
    36   20   21 1
    37   21   22 2
    38   21   23 1
    39   23   24 1
    40   24   48 1
    41   24   49 1
    42   24   50 1
    43   25   51 1
    44   25   52 1
    45   25   64 1
    46   26   27 1
    47   26   53 1
    48   26   54 1
    49   26   64 1
    50   27   28 1
    51   27   55 1
    52   27   56 1
    53   28   29 1
    54   28   57 1
    55   28   58 1
    56   29   30 1
    57   29   59 1
    58   29   60 1
    59   30   31 1
    60   30   32 1
    61   30   64 1
    62   32   33 2
    63   32   34 1
    64   34   35 1
    65   35   61 1
    66   35   62 1
    67   35   63 1
    68   64   65 1
@<TRIPOS>MOLECULE
ZINC24954880
   75    78     0     0     0
SMALL
USER_CHARGES
2-[4-[2-[(3R,5S)-3,5-dimethyl-1-piperidyl]-2-oxo-ethyl]piperazin-1-yl]-N-[4-(2,4,5-trimethylphenyl)thiazol-2-yl]acetamide
@<TRIPOS>ATOM
      1 C1         -7.3937  -10.0960   -1.0473 C.3       1 <0>        -0.1197
      2 C2         -6.2998   -9.0663   -1.1662 C.ar      1 <0>        -0.0692
      3 C3         -6.5549   -7.7482   -0.8320 C.ar      1 <0>        -0.1256
      4 C4         -5.5571   -6.8011   -0.9389 C.ar      1 <0>        -0.0442
      5 C5         -4.2900   -7.1746   -1.3842 C.ar      1 <0>        -0.0441
      6 C6         -4.0403   -8.5028   -1.7245 C.ar      1 <0>        -0.0931
      7 C7         -5.0446   -9.4426   -1.6086 C.ar      1 <0>        -0.0952
      8 C8         -4.7745  -10.8804   -1.9703 C.3       1 <0>        -0.1152
      9 C9         -3.2134   -6.1612   -1.5012 C.2       1 <0>         0.1270
     10 C10        -1.9376   -6.5426   -1.8108 C.2       1 <0>        -0.2325
     11 S1         -1.1095   -4.9578   -1.8131 S.3       1 <0>         0.1124
     12 C11        -2.5356   -3.9604   -1.4050 C.2       1 <0>         0.3069
     13 N1         -3.4777   -4.8789   -1.3005 N.2       1 <0>        -0.5082
     14 N2         -2.6268   -2.5842   -1.2365 N.am      1 <0>        -0.6209
     15 C12        -1.5313   -1.8131   -1.3838 C.2       1 <0>         0.5179
     16 O1         -0.4657   -2.3205   -1.6634 O.2       1 <0>        -0.4886
     17 C13        -1.6302   -0.3205   -1.2011 C.3       1 <0>         0.0424
     18 N3         -0.3099    0.2874   -1.4134 N.3       1 <0>        -0.5246
     19 C14        -0.4089    1.7522   -1.4786 C.3       1 <0>         0.0312
     20 C15         0.9714    2.3412   -1.7792 C.3       1 <0>        -0.0052
     21 N4          1.9166    1.9261   -0.7333 N.4       1 <0>        -0.3899
     22 C16         2.0156    0.4614   -0.6682 C.3       1 <0>         0.0044
     23 C17         0.6354   -0.1277   -0.3676 C.3       1 <0>         0.0173
     24 C18         3.2370    2.5341   -0.9457 C.3       1 <0>        -0.0296
     25 C19         3.1380    4.0267   -0.7630 C.2       1 <0>         0.5018
     26 O2          2.0725    4.5341   -0.4834 O.2       1 <0>        -0.5337
     27 N5          4.2336    4.7977   -0.9102 N.am      1 <0>        -0.5841
     28 C20         4.1529    6.2543   -0.7353 C.3       1 <0>         0.1091
     29 C21         4.7278    6.9333   -1.9823 C.3       1 <0>        -0.1037
     30 H1          4.0906    6.7112   -2.8510 H         1 <0>         0.0763
     31 C22         6.1425    6.4083   -2.2377 C.3       1 <0>        -0.1189
     32 C23         6.0909    4.8997   -2.4896 C.3       1 <0>        -0.1046
     33 H2          5.4447    4.6941   -3.3557 H         1 <0>         0.0780
     34 C24         5.5325    4.1970   -1.2427 C.3       1 <0>         0.0967
     35 C25         7.5014    4.3814   -2.7771 C.3       1 <0>        -0.1534
     36 C26         4.7758    8.4468   -1.7635 C.3       1 <0>        -0.1522
     37 C27        -5.8367   -5.3655   -0.5754 C.3       1 <0>        -0.1852
     38 H3         -8.3129   -9.6140   -0.6828 H         1 <0>         0.0660
     39 H4         -7.0847  -10.8791   -0.3393 H         1 <0>         0.0727
     40 H5         -7.5820  -10.5464   -2.0330 H         1 <0>         0.0727
     41 H6         -7.5369   -7.4599   -0.4871 H         1 <0>         0.1234
     42 H7         -3.0618   -8.7970   -2.0743 H         1 <0>         0.1242
     43 H8         -3.7297  -10.9860   -2.2978 H         1 <0>         0.0648
     44 H9         -5.4469  -11.1860   -2.7854 H         1 <0>         0.0712
     45 H10        -4.9497  -11.5186   -1.0917 H         1 <0>         0.0712
     46 H11        -1.5397   -7.5285   -2.0009 H         1 <0>         0.2007
     47 H12        -3.5932   -2.1240   -0.9829 H         1 <0>         0.4579
     48 H13        -2.3448    0.0914   -1.9289 H         1 <0>         0.1301
     49 H14        -1.9765   -0.0981   -0.1810 H         1 <0>         0.0893
     50 H15        -1.1117    2.0371   -2.2754 H         1 <0>         0.1275
     51 H16        -0.7715    2.1385   -0.5146 H         1 <0>         0.0677
     52 H17         1.3208    1.9764   -2.7563 H         1 <0>         0.1332
     53 H18         0.9050    3.4390   -1.8001 H         1 <0>         0.1514
     54 H19         2.3781    0.0752   -1.6323 H         1 <0>         0.1403
     55 H20         2.7184    0.1764    0.1286 H         1 <0>         0.1385
     56 H21         0.2848    0.2369    0.6092 H         1 <0>         0.0617
     57 H22         0.7008   -1.2256   -0.3472 H         1 <0>         0.1407
     58 H23         3.9517    2.1222   -0.2180 H         1 <0>         0.1605
     59 H24         3.5833    2.3117   -1.9658 H         1 <0>         0.1578
     60 H25         3.1019    6.5498   -0.6009 H         1 <0>         0.1014
     61 H26         4.7331    6.5499    0.1512 H         1 <0>         0.0825
     62 H27         6.5671    6.9122   -3.1185 H         1 <0>         0.0770
     63 H28         6.7731    6.6114   -1.3596 H         1 <0>         0.0716
     64 H29         6.2240    4.3276   -0.3973 H         1 <0>         0.0897
     65 H30         5.3993    3.1240   -1.4450 H         1 <0>         0.0843
     66 H31         7.4638    3.2970   -2.9581 H         1 <0>         0.0597
     67 H32         8.1506    4.5866   -1.9132 H         1 <0>         0.0627
     68 H33         7.9039    4.8879   -3.6667 H         1 <0>         0.0680
     69 H34         5.1887    8.9338   -2.6592 H         1 <0>         0.0666
     70 H35         5.4143    8.6719   -0.8965 H         1 <0>         0.0615
     71 H36         3.7589    8.8228   -1.5775 H         1 <0>         0.0616
     72 H37        -4.9268   -4.7656   -0.7246 H         1 <0>         0.1542
     73 H38        -6.1453   -5.3076    0.4788 H         1 <0>         0.0535
     74 H39        -6.6421   -4.9755   -1.2151 H         1 <0>         0.0568
     75 H40         1.5324    2.2839    0.2334 H         1 <0>         0.4456
@<TRIPOS>BOND
     1    1    2 1
     2    1   38 1
     3    1   39 1
     4    1   40 1
     5    2    7 ar
     6    2    3 ar
     7    3    4 ar
     8    3   41 1
     9    4    5 ar
    10    4   37 1
    11    5    6 ar
    12    5    9 1
    13    6    7 ar
    14    6   42 1
    15    7    8 1
    16    8   43 1
    17    8   44 1
    18    8   45 1
    19    9   13 1
    20    9   10 2
    21   10   11 1
    22   10   46 1
    23   11   12 1
    24   12   13 2
    25   12   14 1
    26   14   15 am
    27   14   47 1
    28   15   16 2
    29   15   17 1
    30   17   18 1
    31   17   48 1
    32   17   49 1
    33   18   23 1
    34   18   19 1
    35   19   20 1
    36   19   50 1
    37   19   51 1
    38   20   21 1
    39   20   52 1
    40   20   53 1
    41   21   22 1
    42   21   24 1
    43   21   75 1
    44   22   23 1
    45   22   54 1
    46   22   55 1
    47   23   56 1
    48   23   57 1
    49   24   25 1
    50   24   58 1
    51   24   59 1
    52   25   26 2
    53   25   27 am
    54   27   34 1
    55   27   28 1
    56   28   29 1
    57   28   60 1
    58   28   61 1
    59   29   30 1
    60   29   31 1
    61   29   36 1
    62   31   32 1
    63   31   62 1
    64   31   63 1
    65   32   33 1
    66   32   34 1
    67   32   35 1
    68   34   64 1
    69   34   65 1
    70   35   66 1
    71   35   67 1
    72   35   68 1
    73   36   69 1
    74   36   70 1
    75   36   71 1
    76   37   72 1
    77   37   73 1
    78   37   74 1
@<TRIPOS>MOLECULE
ZINC38546333
   70    74     0     0     0
SMALL
USER_CHARGES

@<TRIPOS>ATOM
      1 C1          1.0676    1.9014   -1.9132 C.3       1 <0>        -0.1530
      2 C2          0.7511    0.4513   -1.5417 C.3       1 <0>        -0.1034
      3 C3          1.4503   -0.4932   -2.5237 C.3       1 <0>        -0.1420
      4 C4          1.1950   -1.9412   -2.0998 C.3       1 <0>        -0.0101
      5 N1          1.7237   -2.1595   -0.7480 N.4       1 <0>        -0.3849
      6 C5          1.0080   -1.3086    0.2102 C.3       1 <0>        -0.0169
      7 C6          1.2561    0.1637   -0.1248 C.3       1 <0>        -0.1423
      8 C7          1.5462   -3.5695   -0.3762 C.3       1 <0>         0.1428
      9 H1          0.4822   -3.7957   -0.3062 H         1 <0>         0.1550
     10 C8          2.2026   -3.8242    0.9562 C.ar      1 <0>        -0.1191
     11 C9          3.2218   -2.9980    1.3921 C.ar      1 <0>        -0.1416
     12 C10         3.8272   -3.2275    2.6136 C.ar      1 <0>        -0.1522
     13 C11         3.4124   -4.2871    3.4042 C.ar      1 <0>         0.1261
     14 C12         2.3863   -5.1184    2.9656 C.ar      1 <0>         0.1266
     15 C13         1.7805   -4.8800    1.7424 C.ar      1 <0>        -0.1416
     16 O1          1.9757   -6.1598    3.7380 O.3       1 <0>        -0.2938
     17 C14         0.9174   -6.9709    3.2240 C.3       1 <0>         0.0205
     18 O2          4.0072   -4.5145    4.6058 O.3       1 <0>        -0.2947
     19 C15         5.0538   -3.6210    4.9911 C.3       1 <0>         0.0204
     20 C16         2.1787   -4.4488   -1.4240 C.2       1 <0>        -0.1939
     21 C17         1.4649   -5.5207   -1.9611 C.2       1 <0>        -0.0965
     22 C18         2.1033   -6.2677   -2.9014 C.2       1 <0>        -0.1637
     23 S1          3.6921   -5.4959   -3.0523 S.3       1 <0>         0.2288
     24 C19         3.4441   -4.1959   -1.8523 C.2       1 <0>         0.0583
     25 N2          4.3219   -3.1848   -1.4560 N.am      1 <0>        -0.6338
     26 C20         5.4929   -3.0177   -2.1018 C.2       1 <0>         0.6068
     27 O3          5.7854   -3.7481   -3.0306 O.2       1 <0>        -0.4616
     28 C21         6.4146   -1.9560   -1.6857 C.2       1 <0>        -0.1130
     29 C22         7.6242   -1.6752   -2.2539 C.2       1 <0>        -0.0792
     30 C23         8.1609   -0.5893   -1.5445 C.2       1 <0>        -0.2189
     31 C24         7.2669   -0.2591   -0.5866 C.2       1 <0>         0.0170
     32 O4          6.2137   -1.0817   -0.6781 O.3       1 <0>        -0.1782
     33 C25         1.5749   -7.4611   -3.6294 C.3       1 <0>        -0.0466
     34 C26         0.3186   -7.9565   -2.8973 C.3       1 <0>        -0.1154
     35 C27        -0.5893   -6.7565   -2.6132 C.3       1 <0>        -0.1220
     36 C28         0.0396   -5.8671   -1.5400 C.3       1 <0>        -0.0608
     37 H2          2.1453    2.0598   -1.8730 H         1 <0>         0.0607
     38 H3          0.7078    2.1049   -2.9217 H         1 <0>         0.0683
     39 H4          0.5752    2.5725   -1.2094 H         1 <0>         0.0686
     40 H5         -0.3262    0.2909   -1.5843 H         1 <0>         0.0925
     41 H6          1.0555   -0.3326   -3.5269 H         1 <0>         0.1165
     42 H7          2.5223   -0.2959   -2.5178 H         1 <0>         0.0828
     43 H8          0.1229   -2.1375   -2.1062 H         1 <0>         0.1353
     44 H9          1.6913   -2.6163   -2.7969 H         1 <0>         0.1307
     45 H10        -0.0602   -1.5184    0.1546 H         1 <0>         0.1358
     46 H11         1.3661   -1.5166    1.2184 H         1 <0>         0.1352
     47 H12         2.3240    0.3747   -0.0692 H         1 <0>         0.0849
     48 H13         0.7224    0.7939    0.5867 H         1 <0>         0.1174
     49 H14         3.5460   -2.1717    0.7768 H         1 <0>         0.1043
     50 H15         4.6236   -2.5810    2.9514 H         1 <0>         0.1488
     51 H16         0.9813   -5.5215    1.4014 H         1 <0>         0.1476
     52 H17         0.0315   -6.3557    3.0669 H         1 <0>         0.0596
     53 H18         1.2257   -7.4128    2.2765 H         1 <0>         0.0596
     54 H19         0.6879   -7.7631    3.9367 H         1 <0>         0.1114
     55 H20         4.6625   -2.6051    5.0455 H         1 <0>         0.0606
     56 H21         5.4408   -3.9141    5.9670 H         1 <0>         0.1115
     57 H22         5.8563   -3.6624    4.2546 H         1 <0>         0.0597
     58 H23         4.0888   -2.6028   -0.7159 H         1 <0>         0.4013
     59 H24         8.0798   -2.1892   -3.0874 H         1 <0>         0.1693
     60 H25         9.1101   -0.1084   -1.7293 H         1 <0>         0.1681
     61 H26         7.3809    0.5392    0.1318 H         1 <0>         0.2205
     62 H27         1.3188   -7.1839   -4.6520 H         1 <0>         0.0915
     63 H28         2.3286   -8.2485   -3.6396 H         1 <0>         0.0885
     64 H29        -0.2103   -8.6749   -3.5236 H         1 <0>         0.0809
     65 H30         0.6053   -8.4286   -1.9576 H         1 <0>         0.0704
     66 H31        -0.7232   -6.1796   -3.5283 H         1 <0>         0.0698
     67 H32        -1.5597   -7.1112   -2.2660 H         1 <0>         0.0755
     68 H33         0.0588   -6.3998   -0.5892 H         1 <0>         0.0795
     69 H34        -0.5434   -4.9520   -1.4365 H         1 <0>         0.0706
     70 H35         2.7062   -1.9305   -0.7311 H         1 <0>         0.3993
@<TRIPOS>BOND
     1    1    2 1
     2    1   37 1
     3    1   38 1
     4    1   39 1
     5    2    7 1
     6    2    3 1
     7    2   40 1
     8    3    4 1
     9    3   41 1
    10    3   42 1
    11    4    5 1
    12    4   43 1
    13    4   44 1
    14    5    6 1
    15    5    8 1
    16    5   70 1
    17    6    7 1
    18    6   45 1
    19    6   46 1
    20    7   47 1
    21    7   48 1
    22    8    9 1
    23    8   10 1
    24    8   20 1
    25   10   15 ar
    26   10   11 ar
    27   11   12 ar
    28   11   49 1
    29   12   13 ar
    30   12   50 1
    31   13   14 ar
    32   13   18 1
    33   14   15 ar
    34   14   16 1
    35   15   51 1
    36   16   17 1
    37   17   52 1
    38   17   53 1
    39   17   54 1
    40   18   19 1
    41   19   55 1
    42   19   56 1
    43   19   57 1
    44   20   24 2
    45   20   21 1
    46   21   36 1
    47   21   22 2
    48   22   23 1
    49   22   33 1
    50   23   24 1
    51   24   25 1
    52   25   26 am
    53   25   58 1
    54   26   27 2
    55   26   28 1
    56   28   32 1
    57   28   29 2
    58   29   30 1
    59   29   59 1
    60   30   31 2
    61   30   60 1
    62   31   32 1
    63   31   61 1
    64   33   34 1
    65   33   62 1
    66   33   63 1
    67   34   35 1
    68   34   64 1
    69   34   65 1
    70   35   36 1
    71   35   66 1
    72   35   67 1
    73   36   68 1
    74   36   69 1
@<TRIPOS>MOLECULE
ZINC41584598
   69    74     0     0     0
SMALL
USER_CHARGES

@<TRIPOS>ATOM
      1 C1          0.2100    2.0370    0.2336 C.3       1 <0>        -0.1731
      2 C2          0.1238    0.5190    0.4049 C.3       1 <0>         0.0974
      3 N1          0.7449   -0.1385   -0.7476 N.pl3     1 <0>        -0.4628
      4 C3          0.0674   -0.6281   -1.8153 C.2       1 <0>         0.1172
      5 C4          0.9578   -1.1780   -2.7121 C.2       1 <0>        -0.1929
      6 C5          2.2997   -1.0003   -2.1241 C.ar      1 <0>        -0.0772
      7 C6          2.1015   -0.3405   -0.9007 C.ar      1 <0>         0.0863
      8 C7          3.2021   -0.0271   -0.1096 C.ar      1 <0>        -0.1194
      9 C8          4.4706   -0.3616   -0.5318 C.ar      1 <0>        -0.0940
     10 C9          4.6644   -1.0103   -1.7423 C.ar      1 <0>        -0.1248
     11 C10         3.5860   -1.3364   -2.5364 C.ar      1 <0>        -0.0788
     12 C11         0.6372   -1.8110   -3.9898 C.2       1 <0>         0.0946
     13 C12        -0.6404   -1.7828   -4.4624 C.2       1 <0>        -0.1122
     14 C13        -1.0682   -2.2679   -5.7267 C.2       1 <0>         0.4137
     15 O1         -0.3819   -2.7837   -6.5935 O.2       1 <0>        -0.4186
     16 C14        -2.5190   -2.0144   -5.7666 C.ar      1 <0>        -0.2671
     17 C15        -3.5104   -2.2539   -6.7182 C.ar      1 <0>         0.0770
     18 C16        -4.8030   -1.8958   -6.4588 C.ar      1 <0>        -0.1844
     19 C17        -5.1338   -1.2923   -5.2482 C.ar      1 <0>         0.2079
     20 C18        -4.1598   -1.0482   -4.2937 C.ar      1 <0>        -0.2205
     21 C19        -2.8417   -1.4067   -4.5422 C.ar      1 <0>         0.1811
     22 O2         -1.7171   -1.2929   -3.8034 O.3       1 <0>        -0.2154
     23 C20        -4.5304   -0.3940   -2.9877 C.3       1 <0>         0.0568
     24 N2         -4.5642    1.0642   -3.1627 N.4       1 <0>        -0.3787
     25 C21        -3.2213    1.5451   -3.5091 C.3       1 <0>        -0.0079
     26 C22        -3.2671    3.0519   -3.7718 C.3       1 <0>        -0.1454
     27 C23        -3.7588    3.7696   -2.5115 C.3       1 <0>        -0.1355
     28 C24        -5.1276    3.2074   -2.1170 C.3       1 <0>        -0.1359
     29 C25        -5.0128    1.6949   -1.9156 C.3       1 <0>         0.0880
     30 H1         -4.2922    1.4878   -1.1245 H         1 <0>         0.1410
     31 C26        -6.3577    1.1371   -1.5268 C.ar      1 <0>        -0.2009
     32 C27        -6.5992    0.7310   -0.2230 C.ar      1 <0>        -0.0427
     33 C28        -7.8512    0.2241    0.0890 C.ar      1 <0>        -0.1599
     34 C29        -8.8104    0.1408   -0.9028 C.ar      1 <0>         0.1281
     35 N3         -8.5453    0.5361   -2.1324 N.ar      1 <0>        -0.4656
     36 C30        -7.3677    1.0290   -2.4637 C.ar      1 <0>         0.1155
     37 O3         -6.4213   -0.9397   -5.0014 O.3       1 <0>        -0.4923
     38 C31        -3.1562   -2.9060   -8.0299 C.3       1 <0>        -0.1402
     39 H2          1.2551    2.3461    0.2533 H         1 <0>         0.0692
     40 H3         -0.2349    2.3208   -0.7201 H         1 <0>         0.0597
     41 H4         -0.3288    2.5254    1.0456 H         1 <0>         0.0801
     42 H5          0.6463    0.2259    1.3155 H         1 <0>         0.0955
     43 H6         -0.9221    0.2200    0.4738 H         1 <0>         0.0909
     44 H7         -1.0045   -0.5926   -1.9432 H         1 <0>         0.1743
     45 H8          3.0625    0.4783    0.8346 H         1 <0>         0.1229
     46 H9          5.3219   -0.1159    0.0856 H         1 <0>         0.1326
     47 H10         5.6639   -1.2662   -2.0612 H         1 <0>         0.1316
     48 H11         3.7393   -1.8405   -3.4792 H         1 <0>         0.1286
     49 H12         1.4130   -2.3010   -4.5594 H         1 <0>         0.1702
     50 H13        -5.5710   -2.0810   -7.1952 H         1 <0>         0.1546
     51 H14        -5.5128   -0.7448   -2.6715 H         1 <0>         0.1361
     52 H15        -3.7911   -0.6519   -2.2295 H         1 <0>         0.1333
     53 H16        -2.5388    1.3412   -2.6840 H         1 <0>         0.1261
     54 H17        -2.8715    1.0311   -4.4043 H         1 <0>         0.1275
     55 H18        -2.2688    3.4074   -4.0271 H         1 <0>         0.1137
     56 H19        -3.9492    3.2569   -4.5970 H         1 <0>         0.0897
     57 H20        -3.0501    3.6069   -1.6995 H         1 <0>         0.0818
     58 H21        -3.8472    4.8375   -2.7113 H         1 <0>         0.0984
     59 H22        -5.4591    3.6741   -1.1894 H         1 <0>         0.1136
     60 H23        -5.8483    3.4157   -2.9078 H         1 <0>         0.0906
     61 H24        -5.8301    0.8076    0.5313 H         1 <0>         0.1447
     62 H25        -8.0741   -0.1020    1.0942 H         1 <0>         0.1505
     63 H26        -9.7882   -0.2530   -0.6679 H         1 <0>         0.1702
     64 H27        -7.1892    1.3476   -3.4801 H         1 <0>         0.1527
     65 H28        -6.9439   -1.6324   -4.5745 H         1 <0>         0.4127
     66 H29        -3.2439   -3.9881   -7.9331 H         1 <0>         0.0939
     67 H30        -3.8363   -2.5543   -8.8058 H         1 <0>         0.0840
     68 H31        -2.1323   -2.6470   -8.2996 H         1 <0>         0.0895
     69 H32        -5.2051    1.2979   -3.9061 H         1 <0>         0.4223
@<TRIPOS>BOND
     1    1    2 1
     2    1   39 1
     3    1   40 1
     4    1   41 1
     5    2    3 1
     6    2   42 1
     7    2   43 1
     8    3    7 1
     9    3    4 1
    10    4    5 2
    11    4   44 1
    12    5    6 1
    13    5   12 1
    14    6   11 ar
    15    6    7 ar
    16    7    8 ar
    17    8    9 ar
    18    8   45 1
    19    9   10 ar
    20    9   46 1
    21   10   11 ar
    22   10   47 1
    23   11   48 1
    24   12   13 2
    25   12   49 1
    26   13   22 1
    27   13   14 1
    28   14   15 2
    29   14   16 1
    30   16   21 ar
    31   16   17 ar
    32   17   18 ar
    33   17   38 1
    34   18   19 ar
    35   18   50 1
    36   19   20 ar
    37   19   37 1
    38   20   21 ar
    39   20   23 1
    40   21   22 1
    41   23   24 1
    42   23   51 1
    43   23   52 1
    44   24   29 1
    45   24   25 1
    46   24   69 1
    47   25   26 1
    48   25   53 1
    49   25   54 1
    50   26   27 1
    51   26   55 1
    52   26   56 1
    53   27   28 1
    54   27   57 1
    55   27   58 1
    56   28   29 1
    57   28   59 1
    58   28   60 1
    59   29   30 1
    60   29   31 1
    61   31   36 ar
    62   31   32 ar
    63   32   33 ar
    64   32   61 1
    65   33   34 ar
    66   33   62 1
    67   34   35 ar
    68   34   63 1
    69   35   36 ar
    70   36   64 1
    71   37   65 1
    72   38   66 1
    73   38   67 1
    74   38   68 1
@<TRIPOS>MOLECULE
ZINC63398589
   46    50     0     0     0
SMALL
USER_CHARGES

@<TRIPOS>ATOM
      1 C1          6.5059    1.5498   -4.8870 C.ar      1 <0>         0.0181
      2 C2          6.8185    0.4871   -5.7533 C.ar      1 <0>         0.0228
      3 C3          6.7322   -0.8051   -5.3791 C.ar      1 <0>        -0.1350
      4 C4          6.2966   -1.1375   -4.0157 C.ar      1 <0>         0.2921
      5 N1          6.1245   -2.2672   -3.3923 N.pl3     1 <0>        -0.4615
      6 C5          5.6717   -1.9545   -2.0310 C.3       1 <0>         0.1802
      7 N2          5.6026   -0.4905   -1.9436 N.pl3     1 <0>        -0.4606
      8 C6          5.9661   -0.0127   -3.0985 C.ar      1 <0>         0.2912
      9 C7          6.0969    1.3559   -3.6171 C.ar      1 <0>        -0.1305
     10 S1          4.0320   -2.6738   -1.7396 S.3       1 <0>         0.2130
     11 C8          2.9842   -1.8171   -2.8679 C.2       1 <0>        -0.1829
     12 C9          2.6306   -2.2554   -4.1314 C.2       1 <0>        -0.0577
     13 C10         1.7982   -1.2905   -4.6813 C.2       1 <0>        -0.1951
     14 C11         1.6667   -0.2815   -3.7281 C.2       1 <0>         0.1646
     15 O1          2.3924   -0.6342   -2.6415 O.3       1 <0>        -0.1109
     16 C12         0.9154    0.8832   -3.8676 C.2       1 <0>        -0.0289
     17 C13         0.1744    1.3712   -2.7864 C.2       1 <0>        -0.1549
     18 C14        -0.4746    2.6914   -2.8391 C.2       1 <0>         0.5226
     19 N3         -1.1741    3.1066   -1.7688 N.2       1 <0>        -0.6392
     20 C15        -1.2836    2.3618   -0.6954 C.2       1 <0>         0.6253
     21 O2         -1.9988    2.8330    0.3454 O.3       1 <0>        -0.6014
     22 N4         -0.7075    1.1339   -0.5859 N.am      1 <0>        -0.5203
     23 C16         0.0146    0.6073   -1.5958 C.2       1 <0>         0.5514
     24 O3          0.5224   -0.4949   -1.4900 O.2       1 <0>        -0.5122
     25 C17        -0.8721    0.4003    0.5970 C.ar      1 <0>         0.1593
     26 C18         0.2114    0.1846    1.4379 C.ar      1 <0>        -0.1002
     27 C19         0.0466   -0.5387    2.6029 C.ar      1 <0>        -0.0856
     28 C20        -1.1970   -1.0480    2.9323 C.ar      1 <0>        -0.0879
     29 C21        -2.2784   -0.8344    2.0960 C.ar      1 <0>        -0.0772
     30 C22        -2.1201   -0.1070    0.9327 C.ar      1 <0>        -0.0823
     31 Br1        -1.4189   -2.0383    4.5279 Br        1 <0>        -0.0440
     32 O4         -0.3794    3.3938   -3.8325 O.2       1 <0>        -0.5146
     33 H1          6.6014    2.5617   -5.2521 H         1 <0>         0.1983
     34 H2          7.1402    0.7154   -6.7587 H         1 <0>         0.1975
     35 H3          6.9813   -1.5908   -6.0770 H         1 <0>         0.2000
     36 H4          6.3846   -2.3396   -1.3019 H         1 <0>         0.2645
     37 H5          5.8673    2.2010   -2.9851 H         1 <0>         0.2005
     38 H6          2.9436   -3.1759   -4.6017 H         1 <0>         0.1776
     39 H7          1.3409   -1.3161   -5.6594 H         1 <0>         0.1854
     40 H8          0.9051    1.4095   -4.8107 H         1 <0>         0.1961
     41 H9          1.1823    0.5816    1.1810 H         1 <0>         0.1224
     42 H10         0.8891   -0.7071    3.2572 H         1 <0>         0.1356
     43 H11        -3.2480   -1.2331    2.3554 H         1 <0>         0.1416
     44 H12        -2.9655    0.0633    0.2825 H         1 <0>         0.1358
     45 H13         6.2687   -3.1532   -3.7598 H         1 <0>         0.4920
     46 H14         5.3345    0.0261   -1.1675 H         1 <0>         0.4951
@<TRIPOS>BOND
     1    1    9 ar
     2    1    2 ar
     3    1   33 1
     4    2    3 ar
     5    2   34 1
     6    3    4 ar
     7    3   35 1
     8    4    8 ar
     9    4    5 2
    10    5    6 1
    11    5   45 1
    12    6    7 1
    13    6   10 1
    14    6   36 1
    15    7    8 2
    16    7   46 1
    17    8    9 ar
    18    9   37 1
    19   10   11 1
    20   11   15 1
    21   11   12 2
    22   12   13 1
    23   12   38 1
    24   13   14 2
    25   13   39 1
    26   14   15 1
    27   14   16 1
    28   16   17 2
    29   16   40 1
    30   17   23 1
    31   17   18 1
    32   18   19 1
    33   18   32 2
    34   19   20 2
    35   20   21 1
    36   20   22 1
    37   22   23 am
    38   22   25 1
    39   23   24 2
    40   25   30 ar
    41   25   26 ar
    42   26   27 ar
    43   26   41 1
    44   27   28 ar
    45   27   42 1
    46   28   29 ar
    47   28   31 1
    48   29   30 ar
    49   29   43 1
    50   30   44 1
@<TRIPOS>MOLECULE
ZINC16449575
   75    77     0     0     0
SMALL
USER_CHARGES
7,16-bis[(2-nitrophenyl)methyl]-1,4,10,13-tetraoxa-7,16-diazacyclooctadecane
@<TRIPOS>ATOM
      1 C1         -1.8520    4.1219   -0.1796 C.ar      1 <0>        -0.0564
      2 C2         -1.9061    2.7799    0.1486 C.ar      1 <0>        -0.0857
      3 C3         -0.7406    2.0860    0.4141 C.ar      1 <0>        -0.0423
      4 C4          0.4783    2.7364    0.3623 C.ar      1 <0>        -0.0351
      5 C5          0.5318    4.0794    0.0399 C.ar      1 <0>        -0.0898
      6 C6         -0.6335    4.7722   -0.2313 C.ar      1 <0>        -0.0901
      7 C7          1.8604    4.7884   -0.0165 C.3       1 <0>         0.0264
      8 N1          2.2916    5.1295    1.3457 N.4       1 <0>        -0.3953
      9 C8          1.3116    6.0031    2.0048 C.3       1 <0>        -0.0170
     10 C9          0.3199    5.1498    2.7981 C.3       1 <0>         0.0453
     11 O1          0.3248    5.5620    4.1664 O.3       1 <0>        -0.3723
     12 C10        -0.3119    4.6400    5.0533 C.3       1 <0>         0.0611
     13 C11         0.2064    4.8601    6.4759 C.3       1 <0>         0.0557
     14 O2          1.0742    3.7843    6.8385 O.3       1 <0>        -0.3883
     15 C12         1.6448    3.9122    8.1424 C.3       1 <0>         0.0542
     16 C13         2.8029    2.9236    8.2916 C.3       1 <0>         0.0574
     17 N2          4.0780    3.6350    8.1302 N.3       1 <0>        -0.5216
     18 C14         5.1490    2.7119    7.7316 C.3       1 <0>         0.0459
     19 C15         6.1705    3.4574    6.8704 C.3       1 <0>         0.0640
     20 O3          5.8850    3.2303    5.4888 O.3       1 <0>        -0.3825
     21 C16         6.6080    4.0824    4.5982 C.3       1 <0>         0.0574
     22 C17         6.1770    3.7981    3.1579 C.3       1 <0>         0.0611
     23 O4          5.5019    4.9409    2.6284 O.3       1 <0>        -0.3805
     24 C18         4.6908    4.6592    1.4861 C.3       1 <0>         0.0339
     25 C19         3.6247    5.7464    1.3370 C.3       1 <0>        -0.0097
     26 C20         4.4362    4.3585    9.3575 C.3       1 <0>         0.0617
     27 C21         5.6929    5.1561    9.1218 C.ar      1 <0>        -0.0121
     28 C22         6.9099    4.6771    9.5701 C.ar      1 <0>        -0.1209
     29 C23         8.0631    5.4066    9.3501 C.ar      1 <0>        -0.0628
     30 C24         7.9983    6.6198    8.6902 C.ar      1 <0>        -0.1175
     31 C25         6.7810    7.1008    8.2463 C.ar      1 <0>        -0.0568
     32 C26         5.6281    6.3691    8.4625 C.ar      1 <0>        -0.0321
     33 N3          4.3244    6.8845    7.9875 N.pl3     1 <0>         0.0412
     34 O5          4.2800    7.8928    7.3056 O.2       1 <0>        -0.1765
     35 O6          3.2960    6.3004    8.2786 O.3       1 <0>        -0.1464
     36 N4          1.7259    1.9945    0.6517 N.pl3     1 <0>         0.0276
     37 O7          1.6898    0.7913    0.8378 O.2       1 <0>        -0.0824
     38 O8          2.7888    2.5871    0.7038 O.3       1 <0>        -0.2243
     39 H1         -2.7624    4.6632   -0.3911 H         1 <0>         0.1602
     40 H2         -2.8586    2.2729    0.1933 H         1 <0>         0.1635
     41 H3         -0.7824    1.0365    0.6657 H         1 <0>         0.1684
     42 H4         -0.5917    5.8215   -0.4832 H         1 <0>         0.1598
     43 H5          2.6077    4.1302   -0.4837 H         1 <0>         0.1604
     44 H6          1.7600    5.7087   -0.6106 H         1 <0>         0.1491
     45 H7          1.8333    6.6894    2.6880 H         1 <0>         0.1540
     46 H8          0.7691    6.5845    1.2448 H         1 <0>         0.1411
     47 H9         -0.6897    5.2773    2.3804 H         1 <0>         0.0869
     48 H10         0.6127    4.0915    2.7329 H         1 <0>         0.0525
     49 H11        -1.3998    4.8010    5.0304 H         1 <0>         0.0769
     50 H12        -0.0868    3.6111    4.7361 H         1 <0>         0.0677
     51 H13         0.7603    5.8093    6.5215 H         1 <0>         0.0748
     52 H14        -0.6429    4.8973    7.1739 H         1 <0>         0.0678
     53 H15         2.0181    4.9377    8.2803 H         1 <0>         0.0943
     54 H16         0.8781    3.6960    8.9010 H         1 <0>         0.0526
     55 H17         2.7645    2.4617    9.2892 H         1 <0>         0.0570
     56 H18         2.7192    2.1419    7.5222 H         1 <0>         0.0904
     57 H19         5.6456    2.3167    8.6300 H         1 <0>         0.0600
     58 H20         4.7199    1.8799    7.1539 H         1 <0>         0.0914
     59 H21         6.1136    4.5349    7.0843 H         1 <0>         0.0589
     60 H22         7.1817    3.0908    7.1009 H         1 <0>         0.0525
     61 H23         6.3961    5.1335    4.8436 H         1 <0>         0.0619
     62 H24         7.6863    3.8916    4.7027 H         1 <0>         0.0657
     63 H25         7.0646    3.5803    2.5458 H         1 <0>         0.0771
     64 H26         5.4992    2.9319    3.1422 H         1 <0>         0.0756
     65 H27         5.3213    4.6379    0.5850 H         1 <0>         0.0946
     66 H28         4.2025    3.6820    1.6151 H         1 <0>         0.0881
     67 H29         3.7756    6.2800    0.3870 H         1 <0>         0.1434
     68 H30         3.7056    6.4564    2.1732 H         1 <0>         0.1489
     69 H31         3.6170    5.0383    9.6347 H         1 <0>         0.1232
     70 H32         4.6062    3.6383   10.1714 H         1 <0>         0.0567
     71 H33         6.9600    3.7314   10.0892 H         1 <0>         0.1460
     72 H34         9.0143    5.0305    9.6967 H         1 <0>         0.1463
     73 H35         8.8989    7.1914    8.5212 H         1 <0>         0.1495
     74 H36         6.7304    8.0485    7.7308 H         1 <0>         0.1534
     75 H37         2.3550    4.1959    1.9239 H         1 <0>         0.4350
@<TRIPOS>BOND
     1    1    6 ar
     2    1    2 ar
     3    1   39 1
     4    2    3 ar
     5    2   40 1
     6    3    4 ar
     7    3   41 1
     8    4    5 ar
     9    4   36 1
    10    5    6 ar
    11    5    7 1
    12    6   42 1
    13    7    8 1
    14    7   43 1
    15    7   44 1
    16    8   25 1
    17    8    9 1
    18    8   75 1
    19    9   10 1
    20    9   45 1
    21    9   46 1
    22   10   11 1
    23   10   47 1
    24   10   48 1
    25   11   12 1
    26   12   13 1
    27   12   49 1
    28   12   50 1
    29   13   14 1
    30   13   51 1
    31   13   52 1
    32   14   15 1
    33   15   16 1
    34   15   53 1
    35   15   54 1
    36   16   17 1
    37   16   55 1
    38   16   56 1
    39   17   18 1
    40   17   26 1
    41   18   19 1
    42   18   57 1
    43   18   58 1
    44   19   20 1
    45   19   59 1
    46   19   60 1
    47   20   21 1
    48   21   22 1
    49   21   61 1
    50   21   62 1
    51   22   23 1
    52   22   63 1
    53   22   64 1
    54   23   24 1
    55   24   25 1
    56   24   65 1
    57   24   66 1
    58   25   67 1
    59   25   68 1
    60   26   27 1
    61   26   69 1
    62   26   70 1
    63   27   32 ar
    64   27   28 ar
    65   28   29 ar
    66   28   71 1
    67   29   30 ar
    68   29   72 1
    69   30   31 ar
    70   30   73 1
    71   31   32 ar
    72   31   74 1
    73   32   33 1
    74   33   34 2
    75   33   35 1
    76   36   37 2
    77   36   38 1
@<TRIPOS>MOLECULE
ZINC35037981
   69    72     0     0     0
SMALL
USER_CHARGES

@<TRIPOS>ATOM
      1 C1          0.2711    1.4468    0.0549 C.3       1 <0>        -0.1543
      2 C2          0.4308   -0.0737    0.1138 C.3       1 <0>        -0.1134
      3 C3          1.0126   -0.5770   -1.2088 C.3       1 <0>         0.1863
      4 H1          0.3898   -0.2322   -2.0343 H         1 <0>         0.1394
      5 C4          1.0476   -2.0836   -1.2011 C.2       1 <0>         0.3687
      6 N1          0.9049   -2.6976   -0.0660 N.2       1 <0>        -0.4910
      7 C5          0.9253   -4.0513    0.0178 C.ar      1 <0>         0.1316
      8 C6          0.7713   -4.7119    1.2385 C.ar      1 <0>        -0.1021
      9 C7          0.7981   -6.0878    1.2772 C.ar      1 <0>        -0.0688
     10 C8          0.9764   -6.8291    0.1163 C.ar      1 <0>        -0.1220
     11 C9          1.1309   -6.2004   -1.0996 C.ar      1 <0>        -0.0422
     12 C10         1.1064   -4.8085   -1.1609 C.ar      1 <0>        -0.1916
     13 C11         1.2650   -4.0834   -2.4299 C.2       1 <0>         0.5404
     14 O1          1.4246   -4.6762   -3.4811 O.2       1 <0>        -0.4784
     15 N2          1.2216   -2.7314   -2.3848 N.am      1 <0>        -0.4960
     16 C12         1.3626   -1.9924   -3.5665 C.ar      1 <0>         0.0961
     17 C13         2.5980   -1.9164   -4.1960 C.ar      1 <0>        -0.0963
     18 C14         2.7344   -1.1872   -5.3609 C.ar      1 <0>        -0.0953
     19 C15         1.6413   -0.5322   -5.9006 C.ar      1 <0>        -0.0018
     20 C16         0.4091   -0.6060   -5.2749 C.ar      1 <0>        -0.0740
     21 C17         0.2660   -1.3393   -4.1134 C.ar      1 <0>        -0.0860
     22 Cl1         1.8162    0.3841   -7.3647 Cl        1 <0>        -0.0446
     23 N3          2.3726   -0.0578   -1.3730 N.am      1 <0>        -0.5991
     24 C18         3.4337   -0.4802   -0.4556 C.3       1 <0>         0.0781
     25 C19         4.2095   -1.6446   -1.0746 C.3       1 <0>        -0.0477
     26 N4          5.1878   -2.1524   -0.1035 N.4       1 <0>        -0.3817
     27 C20         5.8487   -3.3442   -0.6519 C.3       1 <0>        -0.0494
     28 C21         6.1929   -1.1158    0.1668 C.3       1 <0>        -0.0580
     29 C22         2.6475    0.8086   -2.3682 C.2       1 <0>         0.5157
     30 O2          1.7690    1.1582   -3.1277 O.2       1 <0>        -0.4568
     31 C23         4.0465    1.3427   -2.5372 C.3       1 <0>         0.0454
     32 O3          4.0839    2.2358   -3.6521 O.3       1 <0>        -0.2813
     33 C24         5.2812    2.8091   -3.9434 C.ar      1 <0>         0.1211
     34 C25         6.3982    2.5136   -3.1756 C.ar      1 <0>        -0.2150
     35 C26         7.6142    3.0972   -3.4742 C.ar      1 <0>        -0.0809
     36 C27         7.7184    3.9756   -4.5368 C.ar      1 <0>        -0.1487
     37 C28         6.6065    4.2722   -5.3033 C.ar      1 <0>        -0.0728
     38 C29         5.3896    3.6864   -5.0127 C.ar      1 <0>        -0.1394
     39 H2          1.2443    1.9081   -0.1129 H         1 <0>         0.0517
     40 H3         -0.4014    1.7102   -0.7615 H         1 <0>         0.0615
     41 H4         -0.1434    1.8053    0.9971 H         1 <0>         0.0677
     42 H5          1.1032   -0.3371    0.9302 H         1 <0>         0.0802
     43 H6         -0.5425   -0.5350    0.2815 H         1 <0>         0.0900
     44 H7          0.6323   -4.1462    2.1479 H         1 <0>         0.1446
     45 H8          0.6792   -6.5970    2.2222 H         1 <0>         0.1416
     46 H9          0.9945   -7.9078    0.1675 H         1 <0>         0.1408
     47 H10         1.2692   -6.7822   -1.9990 H         1 <0>         0.1421
     48 H11         3.4515   -2.4269   -3.7749 H         1 <0>         0.1205
     49 H12         3.6950   -1.1278   -5.8509 H         1 <0>         0.1411
     50 H13        -0.4423   -0.0936   -5.6978 H         1 <0>         0.1466
     51 H14        -0.6969   -1.4006   -3.6281 H         1 <0>         0.1365
     52 H15         4.1122    0.3539   -0.2761 H         1 <0>         0.1096
     53 H16         2.9921   -0.7989    0.4886 H         1 <0>         0.1212
     54 H17         3.5160   -2.4417   -1.3424 H         1 <0>         0.1238
     55 H18         4.7299   -1.3002   -1.9683 H         1 <0>         0.1347
     56 H19         6.3591   -3.0825   -1.5788 H         1 <0>         0.1248
     57 H20         6.5746   -3.7211    0.0687 H         1 <0>         0.1331
     58 H21         5.1029   -4.1134   -0.8525 H         1 <0>         0.1209
     59 H22         5.7025   -0.2315    0.5737 H         1 <0>         0.1261
     60 H23         6.9188   -1.4927    0.8874 H         1 <0>         0.1334
     61 H24         6.7033   -0.8541   -0.7601 H         1 <0>         0.1250
     62 H25         4.3433    1.8762   -1.6342 H         1 <0>         0.0949
     63 H26         4.7330    0.5143   -2.7120 H         1 <0>         0.0803
     64 H27         6.3172    1.8280   -2.3450 H         1 <0>         0.1167
     65 H28         8.4841    2.8675   -2.8767 H         1 <0>         0.1262
     66 H29         8.6699    4.4312   -4.7684 H         1 <0>         0.1289
     67 H30         6.6904    4.9589   -6.1326 H         1 <0>         0.1355
     68 H31         4.5224    3.9149   -5.6144 H         1 <0>         0.1356
     69 H32         4.7153   -2.3947    0.7545 H         1 <0>         0.4304
@<TRIPOS>BOND
     1    1    2 1
     2    1   39 1
     3    1   40 1
     4    1   41 1
     5    2    3 1
     6    2   42 1
     7    2   43 1
     8    3    4 1
     9    3    5 1
    10    3   23 1
    11    5   15 1
    12    5    6 2
    13    6    7 1
    14    7   12 ar
    15    7    8 ar
    16    8    9 ar
    17    8   44 1
    18    9   10 ar
    19    9   45 1
    20   10   11 ar
    21   10   46 1
    22   11   12 ar
    23   11   47 1
    24   12   13 1
    25   13   14 2
    26   13   15 am
    27   15   16 1
    28   16   21 ar
    29   16   17 ar
    30   17   18 ar
    31   17   48 1
    32   18   19 ar
    33   18   49 1
    34   19   20 ar
    35   19   22 1
    36   20   21 ar
    37   20   50 1
    38   21   51 1
    39   23   24 1
    40   23   29 am
    41   24   25 1
    42   24   52 1
    43   24   53 1
    44   25   26 1
    45   25   54 1
    46   25   55 1
    47   26   27 1
    48   26   28 1
    49   26   69 1
    50   27   56 1
    51   27   57 1
    52   27   58 1
    53   28   59 1
    54   28   60 1
    55   28   61 1
    56   29   30 2
    57   29   31 1
    58   31   32 1
    59   31   62 1
    60   31   63 1
    61   32   33 1
    62   33   38 ar
    63   33   34 ar
    64   34   35 ar
    65   34   64 1
    66   35   36 ar
    67   35   65 1
    68   36   37 ar
    69   36   66 1
    70   37   38 ar
    71   37   67 1
    72   38   68 1
@<TRIPOS>MOLECULE
ZINC33812672
   72    75     0     0     0
SMALL
USER_CHARGES

@<TRIPOS>ATOM
      1 C1          2.0947    1.9647   -0.5788 C.3       1 <0>        -0.1548
      2 C2          1.6132    0.5237   -0.3982 C.3       1 <0>        -0.1180
      3 C3          2.0427   -0.3126   -1.6053 C.3       1 <0>        -0.1330
      4 C4          1.5611   -1.7536   -1.4247 C.3       1 <0>         0.0876
      5 N1          1.9723   -2.5544   -2.5805 N.am      1 <0>        -0.4882
      6 C5          1.1072   -2.7297   -3.6123 C.2       1 <0>         0.4646
      7 C6          1.4770   -3.4934   -4.7317 C.2       1 <0>        -0.1830
      8 C7          2.7541   -4.0775   -4.7782 C.2       1 <0>         0.1164
      9 C8          3.6227   -3.8824   -3.7080 C.2       1 <0>        -0.1470
     10 C9          3.2023   -3.0985   -2.6034 C.2       1 <0>         0.5459
     11 O1          3.9598   -2.9200   -1.6658 O.2       1 <0>        -0.5049
     12 C10         4.9309   -4.4645   -3.7243 C.1       1 <0>         0.2644
     13 N2          5.9688   -4.9262   -3.7372 N.1       1 <0>        -0.3913
     14 C11         3.1765   -4.9020   -5.9668 C.3       1 <0>        -0.1400
     15 C12         0.5394   -3.6796   -5.8406 C.2       1 <0>         0.0981
     16 C13         0.8156   -3.1468   -7.0620 C.2       1 <0>        -0.2231
     17 C14         1.8899   -2.2936   -7.4591 C.2       1 <0>         0.5319
     18 O2          2.7344   -1.9343   -6.6585 O.2       1 <0>        -0.4499
     19 N3          1.9402   -1.9061   -8.7217 N.am      1 <0>        -0.5181
     20 C15         1.0028   -2.3051   -9.6098 C.2       1 <0>         0.2680
     21 S1          0.8734   -1.9286  -11.2749 S.2       1 <0>        -0.2414
     22 S2         -0.0630   -3.3305   -8.6078 S.3       1 <0>         0.0375
     23 C16         3.0280   -1.0307   -9.1651 C.3       1 <0>         0.0754
     24 C17         4.2058   -1.8826   -9.6425 C.3       1 <0>         0.0687
     25 H1          4.4955   -2.5843   -8.8604 H         1 <0>         0.0819
     26 C18         5.4007   -0.9719   -9.9979 C.3       1 <0>        -0.1455
     27 C19         5.9728   -1.6593  -11.2677 C.3       1 <0>        -0.1560
     28 C20         4.6742   -2.1918  -11.9241 C.3       1 <0>         0.0516
     29 O3          3.8384   -2.5995  -10.8269 O.3       1 <0>        -0.3661
     30 N4         -0.1314   -2.1600   -3.5611 N.pl3     1 <0>        -0.6755
     31 C21        -0.3893   -0.8533   -4.1857 C.3       1 <0>         0.1123
     32 C22        -1.6320   -0.9761   -5.0735 C.3       1 <0>        -0.0249
     33 N5         -2.7504   -1.4992   -4.2787 N.4       1 <0>        -0.3827
     34 C23        -2.4493   -2.8644   -3.8296 C.3       1 <0>        -0.0279
     35 C24        -1.2484   -2.8377   -2.8850 C.3       1 <0>         0.1087
     36 C25        -3.9682   -1.5134   -5.1002 C.3       1 <0>        -0.0122
     37 C26        -5.1591   -1.9396   -4.2395 C.3       1 <0>        -0.1889
     38 H2          3.1815    1.9769   -0.6611 H         1 <0>         0.0589
     39 H3          1.6569    2.3832   -1.4850 H         1 <0>         0.0521
     40 H4          1.7887    2.5605    0.2812 H         1 <0>         0.0613
     41 H5          2.0509    0.1052    0.5081 H         1 <0>         0.0708
     42 H6          0.5263    0.5114   -0.3159 H         1 <0>         0.0607
     43 H7          1.6049    0.1059   -2.5115 H         1 <0>         0.0622
     44 H8          3.1295   -0.3003   -1.6876 H         1 <0>         0.0790
     45 H9          1.9989   -2.1721   -0.5184 H         1 <0>         0.1083
     46 H10         0.4743   -1.7659   -1.3424 H         1 <0>         0.0939
     47 H11         3.5941   -4.2482   -6.7325 H         1 <0>         0.0916
     48 H12         3.9297   -5.6265   -5.6573 H         1 <0>         0.0870
     49 H13         2.3110   -5.4275   -6.3704 H         1 <0>         0.0861
     50 H14        -0.3714   -4.2398   -5.6893 H         1 <0>         0.1551
     51 H15         2.6781   -0.4028   -9.9844 H         1 <0>         0.1169
     52 H16         3.3482   -0.4004   -8.3354 H         1 <0>         0.1139
     53 H17         5.0638    0.0400  -10.2229 H         1 <0>         0.0836
     54 H18         6.1372   -0.9671   -9.1943 H         1 <0>         0.0879
     55 H19         6.4722   -0.9374  -11.9139 H         1 <0>         0.0896
     56 H20         6.6433   -2.4770  -11.0034 H         1 <0>         0.0806
     57 H21         4.1886   -1.4020  -12.4973 H         1 <0>         0.0678
     58 H22         4.8968   -3.0441  -12.5661 H         1 <0>         0.0887
     59 H23        -0.5643   -0.1056   -3.4120 H         1 <0>         0.0963
     60 H24         0.4676   -0.5622   -4.7933 H         1 <0>         0.1224
     61 H25        -1.8948    0.0051   -5.4688 H         1 <0>         0.1458
     62 H26        -1.4232   -1.6566   -5.8990 H         1 <0>         0.1325
     63 H27        -3.3142   -3.2746   -3.3083 H         1 <0>         0.1495
     64 H28        -2.2157   -3.4878   -4.6927 H         1 <0>         0.1341
     65 H29        -0.9592   -3.8580   -2.6331 H         1 <0>         0.1282
     66 H30        -1.5116   -2.2939   -1.9778 H         1 <0>         0.0944
     67 H31        -4.1479   -0.5157   -5.5007 H         1 <0>         0.1332
     68 H32        -3.8435   -2.2179   -5.9226 H         1 <0>         0.1315
     69 H33        -5.2837   -1.2351   -3.4172 H         1 <0>         0.0813
     70 H34        -6.0627   -1.9501   -4.8491 H         1 <0>         0.1087
     71 H35        -4.9794   -2.9373   -3.8390 H         1 <0>         0.0810
     72 H36        -2.8966   -0.9067   -3.4753 H         1 <0>         0.4243
@<TRIPOS>BOND
     1    1    2 1
     2    1   38 1
     3    1   39 1
     4    1   40 1
     5    2    3 1
     6    2   41 1
     7    2   42 1
     8    3    4 1
     9    3   43 1
    10    3   44 1
    11    4    5 1
    12    4   45 1
    13    4   46 1
    14    5   10 am
    15    5    6 1
    16    6    7 2
    17    6   30 1
    18    7    8 1
    19    7   15 1
    20    8    9 2
    21    8   14 1
    22    9   10 1
    23    9   12 1
    24   10   11 2
    25   12   13 3
    26   14   47 1
    27   14   48 1
    28   14   49 1
    29   15   16 2
    30   15   50 1
    31   16   22 1
    32   16   17 1
    33   17   18 2
    34   17   19 am
    35   19   20 1
    36   19   23 1
    37   20   21 2
    38   20   22 1
    39   23   24 1
    40   23   51 1
    41   23   52 1
    42   24   25 1
    43   24   29 1
    44   24   26 1
    45   26   27 1
    46   26   53 1
    47   26   54 1
    48   27   28 1
    49   27   55 1
    50   27   56 1
    51   28   29 1
    52   28   57 1
    53   28   58 1
    54   30   35 1
    55   30   31 1
    56   31   32 1
    57   31   59 1
    58   31   60 1
    59   32   33 1
    60   32   61 1
    61   32   62 1
    62   33   34 1
    63   33   36 1
    64   33   72 1
    65   34   35 1
    66   34   63 1
    67   34   64 1
    68   35   65 1
    69   35   66 1
    70   36   37 1
    71   36   67 1
    72   36   68 1
    73   37   69 1
    74   37   70 1
    75   37   71 1
@<TRIPOS>MOLECULE
ZINC36660277
   71    74     0     0     0
SMALL
USER_CHARGES

@<TRIPOS>ATOM
      1 C1          2.0226    1.2838   -1.2542 C.3       1 <0>        -0.1557
      2 C2          1.8577   -0.2320   -1.1270 C.3       1 <0>         0.0519
      3 O1          2.2244   -0.6421    0.1918 O.3       1 <0>        -0.3044
      4 C3          2.1345   -1.9694    0.4730 C.ar      1 <0>         0.1636
      5 C4          1.7071   -2.8680   -0.5001 C.ar      1 <0>        -0.1890
      6 C5          1.6084   -4.2094   -0.2403 C.ar      1 <0>        -0.0192
      7 C6          1.9395   -4.7267    1.0335 C.ar      1 <0>         0.0527
      8 C7          2.3696   -3.7873    1.9978 C.ar      1 <0>        -0.1272
      9 C8          2.4729   -2.4447    1.7313 C.ar      1 <0>        -0.1013
     10 S1          2.6777   -4.8139    3.4149 S.3       1 <0>         0.0520
     11 C9          2.2314   -6.3732    2.6641 C.2       1 <0>         0.3352
     12 N1          1.8969   -6.0127    1.4478 N.2       1 <0>        -0.5145
     13 N2          2.2373   -7.6409    3.2244 N.am      1 <0>        -0.5007
     14 C10         1.6996   -8.7769    2.4717 C.3       1 <0>         0.1215
     15 C11         2.8103   -9.3971    1.6216 C.3       1 <0>        -0.1734
     16 C12         2.2721  -10.6373    0.9053 C.3       1 <0>        -0.0047
     17 N3          3.3385  -11.2327    0.0891 N.4       1 <0>        -0.3872
     18 C13         2.8584  -12.4882   -0.5035 C.3       1 <0>        -0.0468
     19 C14         3.7156  -10.2991   -0.9806 C.3       1 <0>        -0.0522
     20 C15         2.7376   -7.8285    4.4617 C.2       1 <0>         0.5137
     21 O2          2.8185   -8.9485    4.9196 O.2       1 <0>        -0.4617
     22 C16         3.1966   -6.6465    5.2761 C.3       1 <0>         0.1228
     23 H1          3.7962   -5.9799    4.6563 H         1 <0>         0.1103
     24 C17         1.9744   -5.8870    5.8337 C.3       1 <0>        -0.1229
     25 C18         1.8430   -6.4495    7.2737 C.3       1 <0>        -0.1260
     26 C19         3.3281   -6.6521    7.6652 C.3       1 <0>         0.1100
     27 N4          3.9890   -7.1084    6.4252 N.pl3     1 <0>        -0.9891
     28 S2          5.3860   -7.9935    6.3409 S.o2      1 <0>         2.7088
     29 O3          5.5071   -8.6802    7.5790 O.2       1 <0>        -0.9396
     30 O4          5.3622   -8.6721    5.0926 O.2       1 <0>        -0.9499
     31 C20         6.7240   -6.8494    6.2667 C.ar      1 <0>        -0.6919
     32 C21         7.1755   -6.3923    5.0427 C.ar      1 <0>        -0.0188
     33 C22         8.2251   -5.4947    4.9845 C.ar      1 <0>        -0.1412
     34 C23         8.8230   -5.0538    6.1503 C.ar      1 <0>        -0.0207
     35 C24         8.3709   -5.5102    7.3743 C.ar      1 <0>        -0.1381
     36 C25         7.3184   -6.4045    7.4327 C.ar      1 <0>        -0.0130
     37 C26         9.9679   -4.0760    6.0868 C.3       1 <0>        -0.1294
     38 H2          3.0618    1.5533   -1.0656 H         1 <0>         0.0690
     39 H3          1.7429    1.5966   -2.2602 H         1 <0>         0.0836
     40 H4          1.3806    1.7813   -0.5273 H         1 <0>         0.0696
     41 H5          0.8185   -0.5015   -1.3156 H         1 <0>         0.0677
     42 H6          2.4997   -0.7295   -1.8539 H         1 <0>         0.0668
     43 H7          1.4472   -2.4996   -1.4815 H         1 <0>         0.1426
     44 H8          1.2733   -4.8801   -1.0177 H         1 <0>         0.1367
     45 H9          2.8108   -1.7626    2.4974 H         1 <0>         0.1450
     46 H10         1.3140   -9.5232    3.1663 H         1 <0>         0.1091
     47 H11         0.8938   -8.4340    1.8226 H         1 <0>         0.1066
     48 H12         3.1516   -8.6709    0.8839 H         1 <0>         0.0961
     49 H13         3.6436   -9.6816    2.2640 H         1 <0>         0.1008
     50 H14         1.9307  -11.3635    1.6430 H         1 <0>         0.1354
     51 H15         1.4387  -10.3528    0.2628 H         1 <0>         0.1337
     52 H16         1.9908  -12.2853   -1.1313 H         1 <0>         0.1223
     53 H17         3.6497  -12.9301   -1.1091 H         1 <0>         0.1247
     54 H18         2.5785  -13.1810    0.2901 H         1 <0>         0.1243
     55 H19         2.8480  -10.0962   -1.6083 H         1 <0>         0.1234
     56 H20         4.0718   -9.3676   -0.5408 H         1 <0>         0.1230
     57 H21         4.5069  -10.7410   -1.5862 H         1 <0>         0.1246
     58 H22         2.1640   -4.8138    5.8547 H         1 <0>         0.1075
     59 H23         1.0819   -6.1107    5.2493 H         1 <0>         0.0905
     60 H24         1.3603   -5.7277    7.9326 H         1 <0>         0.1005
     61 H25         1.3057   -7.3978    7.2752 H         1 <0>         0.0838
     62 H26         3.7636   -5.7110    8.0013 H         1 <0>         0.0815
     63 H27         3.4153   -7.4106    8.4431 H         1 <0>         0.0969
     64 H28         6.7084   -6.7368    4.1319 H         1 <0>         0.1326
     65 H29         8.5783   -5.1381    4.0282 H         1 <0>         0.1340
     66 H30         8.8382   -5.1660    8.2851 H         1 <0>         0.1377
     67 H31         6.9628   -6.7582    8.3892 H         1 <0>         0.1420
     68 H32         9.5787   -3.0583    6.1169 H         1 <0>         0.0832
     69 H33        10.6307   -4.2368    6.9371 H         1 <0>         0.0767
     70 H34        10.5225   -4.2256    5.1604 H         1 <0>         0.0749
     71 H35         4.1416  -11.4206    0.6702 H         1 <0>         0.4290
@<TRIPOS>BOND
     1    1    2 1
     2    1   38 1
     3    1   39 1
     4    1   40 1
     5    2    3 1
     6    2   41 1
     7    2   42 1
     8    3    4 1
     9    4    9 ar
    10    4    5 ar
    11    5    6 ar
    12    5   43 1
    13    6    7 ar
    14    6   44 1
    15    7   12 1
    16    7    8 ar
    17    8    9 ar
    18    8   10 1
    19    9   45 1
    20   10   11 1
    21   11   12 2
    22   11   13 1
    23   13   14 1
    24   13   20 am
    25   14   15 1
    26   14   46 1
    27   14   47 1
    28   15   16 1
    29   15   48 1
    30   15   49 1
    31   16   17 1
    32   16   50 1
    33   16   51 1
    34   17   18 1
    35   17   19 1
    36   17   71 1
    37   18   52 1
    38   18   53 1
    39   18   54 1
    40   19   55 1
    41   19   56 1
    42   19   57 1
    43   20   21 2
    44   20   22 1
    45   22   23 1
    46   22   27 1
    47   22   24 1
    48   24   25 1
    49   24   58 1
    50   24   59 1
    51   25   26 1
    52   25   60 1
    53   25   61 1
    54   26   27 1
    55   26   62 1
    56   26   63 1
    57   27   28 1
    58   28   29 2
    59   28   30 2
    60   28   31 1
    61   31   36 ar
    62   31   32 ar
    63   32   33 ar
    64   32   64 1
    65   33   34 ar
    66   33   65 1
    67   34   35 ar
    68   34   37 1
    69   35   36 ar
    70   35   66 1
    71   36   67 1
    72   37   68 1
    73   37   69 1
    74   37   70 1
@<TRIPOS>MOLECULE
ZINC39946149
   66    70     0     0     0
SMALL
USER_CHARGES

@<TRIPOS>ATOM
      1 C1         -0.0163    1.3476    0.0095 C.ar      1 <0>        -0.1091
      2 C2          1.1580    2.1174    0.0024 C.ar      1 <0>         0.0328
      3 C3          2.3839    1.5510   -0.0124 C.ar      1 <0>        -0.1845
      4 C4          2.4936    0.0827   -0.0214 C.ar      1 <0>         0.3184
      5 N1          3.5252   -0.7122   -0.0355 N.pl3     1 <0>        -0.5440
      6 C5          3.0651   -2.1044   -0.0386 C.3       1 <0>         0.0659
      7 C6          1.5533   -2.0462   -0.0238 C.2       1 <0>        -0.0483
      8 C7          1.2336   -0.7004   -0.0135 C.ar      1 <0>        -0.0617
      9 C8          0.0021   -0.0041    0.0020 C.ar      1 <0>        -0.0583
     10 C9          0.6573   -3.1363   -0.0211 C.2       1 <0>         0.3878
     11 O1         -0.5406   -2.9376   -0.0091 O.2       1 <0>        -0.3563
     12 C10         1.1870   -4.5471   -0.0332 C.3       1 <0>         0.0233
     13 O2          0.0932   -5.4666   -0.0278 O.3       1 <0>        -0.3350
     14 C11         0.3975   -6.7795   -0.0374 C.2       1 <0>         0.5179
     15 O3          1.5599   -7.1337   -0.0499 O.2       1 <0>        -0.4716
     16 C12        -0.6788   -7.7850   -0.0326 C.ar      1 <0>        -0.1685
     17 C13        -2.0175   -7.3824   -0.0240 C.ar      1 <0>         0.0443
     18 C14        -3.0191   -8.3278   -0.0195 C.ar      1 <0>        -0.7000
     19 C15        -2.7076   -9.6786   -0.0235 C.ar      1 <0>         0.0261
     20 C16        -1.3916  -10.0923   -0.0320 C.ar      1 <0>        -0.1545
     21 C17        -0.3668   -9.1539   -0.0425 C.ar      1 <0>         0.3051
     22 N2          0.9583   -9.5677   -0.0568 N.pl3     1 <0>        -0.6769
     23 C18         1.6827   -9.8031    1.1996 C.3       1 <0>         0.1512
     24 C19         2.2811  -11.2129    1.1670 C.3       1 <0>        -0.1378
     25 C20         3.1377  -11.3702   -0.0914 C.3       1 <0>        -0.1154
     26 C21         2.2616  -11.1886   -1.3329 C.3       1 <0>        -0.1380
     27 C22         1.6611   -9.7844   -1.3287 C.3       1 <0>         0.1527
     28 S1         -4.7055   -7.8174   -0.0080 S.o2      1 <0>         2.6904
     29 O4         -5.4515   -8.8928    0.5455 O.2       1 <0>        -0.9425
     30 O5         -4.7301   -6.5089    0.5454 O.2       1 <0>        -0.9456
     31 N3         -5.1840   -7.6727   -1.5868 N.pl3     1 <0>        -0.9992
     32 C23        -5.0318   -6.4007   -2.3108 C.3       1 <0>         0.0844
     33 C24        -4.3272   -6.6837   -3.6425 C.3       1 <0>         0.0474
     34 O6         -5.0221   -7.7266   -4.3304 O.3       1 <0>        -0.3724
     35 C25        -5.0327   -8.9779   -3.6390 C.3       1 <0>         0.0466
     36 C26        -5.7683   -8.8140   -2.3089 C.3       1 <0>         0.0833
     37 H1         -0.9698    1.8544    0.0259 H         1 <0>         0.1624
     38 H2          1.0784    3.1944    0.0086 H         1 <0>         0.1697
     39 H3          3.2714    2.1664   -0.0179 H         1 <0>         0.1714
     40 H4          3.4122   -2.6122   -0.9385 H         1 <0>         0.1865
     41 H5          3.4293   -2.6218    0.8490 H         1 <0>         0.1866
     42 H6         -0.9271   -0.5546    0.0079 H         1 <0>         0.1697
     43 H7          1.7875   -4.7020   -0.9296 H         1 <0>         0.1149
     44 H8          1.8040   -4.7111    0.8503 H         1 <0>         0.1150
     45 H9         -2.2661   -6.3314   -0.0205 H         1 <0>         0.1544
     46 H10        -3.5005  -10.4119   -0.0195 H         1 <0>         0.1510
     47 H11        -1.1577  -11.1467   -0.0350 H         1 <0>         0.1479
     48 H12         2.4819   -9.0692    1.3036 H         1 <0>         0.0596
     49 H13         0.9938   -9.7178    2.0400 H         1 <0>         0.0640
     50 H14         2.9009  -11.3655    2.0505 H         1 <0>         0.0711
     51 H15         1.4773  -11.9491    1.1544 H         1 <0>         0.0651
     52 H16         3.9264  -10.6178   -0.0902 H         1 <0>         0.0616
     53 H17         3.5846  -12.3643   -0.1045 H         1 <0>         0.0634
     54 H18         2.8676  -11.3239   -2.2288 H         1 <0>         0.0712
     55 H19         1.4580  -11.9250   -1.3221 H         1 <0>         0.0647
     56 H20         0.9581   -9.6867   -2.1560 H         1 <0>         0.0627
     57 H21         2.4585   -9.0489   -1.4355 H         1 <0>         0.0588
     58 H22        -6.0134   -5.9662   -2.5000 H         1 <0>         0.0893
     59 H23        -4.4323   -5.7101   -1.7177 H         1 <0>         0.0988
     60 H24        -4.3277   -5.7812   -4.2537 H         1 <0>         0.1081
     61 H25        -3.3000   -6.9947   -3.4520 H         1 <0>         0.0537
     62 H26        -5.5407   -9.7259   -4.2477 H         1 <0>         0.1117
     63 H27        -4.0081   -9.2973   -3.4485 H         1 <0>         0.0553
     64 H28        -5.6562   -9.7208   -1.7145 H         1 <0>         0.1016
     65 H29        -6.8253   -8.6266   -2.4978 H         1 <0>         0.0899
     66 H30         4.4526   -0.4278   -0.0428 H         1 <0>         0.4616
@<TRIPOS>BOND
     1    1    9 ar
     2    1    2 ar
     3    1   37 1
     4    2    3 ar
     5    2   38 1
     6    3    4 ar
     7    3   39 1
     8    4    8 ar
     9    4    5 2
    10    5    6 1
    11    5   66 1
    12    6    7 1
    13    6   40 1
    14    6   41 1
    15    7    8 2
    16    7   10 1
    17    8    9 ar
    18    9   42 1
    19   10   11 2
    20   10   12 1
    21   12   13 1
    22   12   43 1
    23   12   44 1
    24   13   14 1
    25   14   15 2
    26   14   16 1
    27   16   21 ar
    28   16   17 ar
    29   17   18 ar
    30   17   45 1
    31   18   19 ar
    32   18   28 1
    33   19   20 ar
    34   19   46 1
    35   20   21 ar
    36   20   47 1
    37   21   22 1
    38   22   27 1
    39   22   23 1
    40   23   24 1
    41   23   48 1
    42   23   49 1
    43   24   25 1
    44   24   50 1
    45   24   51 1
    46   25   26 1
    47   25   52 1
    48   25   53 1
    49   26   27 1
    50   26   54 1
    51   26   55 1
    52   27   56 1
    53   27   57 1
    54   28   29 2
    55   28   30 2
    56   28   31 1
    57   31   36 1
    58   31   32 1
    59   32   33 1
    60   32   58 1
    61   32   59 1
    62   33   34 1
    63   33   60 1
    64   33   61 1
    65   34   35 1
    66   35   36 1
    67   35   62 1
    68   35   63 1
    69   36   64 1
    70   36   65 1
@<TRIPOS>MOLECULE
ZINC22263984
   44    47     0     0     0
SMALL
USER_CHARGES

@<TRIPOS>ATOM
      1 C1         -0.0166    1.3752    0.0096 C.ar      1 <0>        -0.1031
      2 C2          1.1741    2.0778    0.0020 C.ar      1 <0>        -0.1200
      3 C3          2.3725    1.3952   -0.0156 C.ar      1 <0>        -0.0829
      4 C4          2.3941    0.0064   -0.0248 C.ar      1 <0>        -0.0961
      5 C5          1.2074   -0.6934   -0.0128 C.ar      1 <0>        -0.0520
      6 C6          0.0021   -0.0041    0.0020 C.ar      1 <0>        -0.1290
      7 C7          1.1579   -2.1987   -0.0085 C.3       1 <0>        -0.0814
      8 C8          2.4886   -2.7834   -0.4776 C.3       1 <0>        -0.1286
      9 C9          3.6157   -2.1453    0.3438 C.3       1 <0>        -0.1100
     10 C10         3.7313   -0.6788   -0.0521 C.3       1 <0>         0.1739
     11 C11         4.3553   -0.5523   -1.4238 C.2       1 <0>         0.5414
     12 O1          3.9192   -0.9816   -2.4704 O.2       1 <0>        -0.4517
     13 N1          5.4990    0.1383   -1.2383 N.am      1 <0>        -0.5571
     14 C12         5.6775    0.4600    0.0486 C.2       1 <0>         0.7096
     15 O2          6.6356    1.0825    0.4630 O.2       1 <0>        -0.5343
     16 N2          4.6768    0.0165    0.8326 N.am      1 <0>        -0.7181
     17 C13         6.4305    0.4921   -2.3123 C.3       1 <0>         0.0982
     18 C14         6.0481    1.8313   -2.8880 C.2       1 <0>         0.4789
     19 O3          5.0916    2.4311   -2.4449 O.2       1 <0>        -0.4879
     20 N3          6.7690    2.3624   -3.8953 N.am      1 <0>        -0.6267
     21 C15         6.4148    3.6027   -4.4286 C.ar      1 <0>         0.1942
     22 C16         7.1648    4.1470   -5.4709 C.ar      1 <0>         0.2245
     23 C17         6.7990    5.3811   -5.9902 C.ar      1 <0>        -0.2409
     24 C18         5.6962    6.0259   -5.4480 C.ar      1 <0>        -0.1326
     25 C19         5.0009    5.4264   -4.4166 C.ar      1 <0>        -0.0365
     26 N4          5.3674    4.2497   -3.9449 N.ar      1 <0>        -0.4342
     27 O4          8.2385    3.4789   -5.9706 O.3       1 <0>        -0.7274
     28 H1         -0.9580    1.9043    0.0259 H         1 <0>         0.1242
     29 H2          1.1659    3.1578    0.0095 H         1 <0>         0.1264
     30 H3          3.3019    1.9452   -0.0226 H         1 <0>         0.1253
     31 H4         -0.9284   -0.5523    0.0077 H         1 <0>         0.1239
     32 H5          0.9486   -2.5482    1.0025 H         1 <0>         0.0793
     33 H6          0.3634   -2.5338   -0.6753 H         1 <0>         0.0802
     34 H7          2.4891   -3.8625   -0.3241 H         1 <0>         0.0791
     35 H8          2.6343   -2.5606   -1.5347 H         1 <0>         0.0869
     36 H9          3.3827   -2.2206    1.4059 H         1 <0>         0.0883
     37 H10         4.5556   -2.6562    0.1349 H         1 <0>         0.0790
     38 H11         4.5956    0.1333    1.7921 H         1 <0>         0.4393
     39 H12         7.4431    0.5444   -1.9124 H         1 <0>         0.1251
     40 H13         6.3875   -0.2654   -3.0948 H         1 <0>         0.1225
     41 H14         7.5339    1.8827   -4.2497 H         1 <0>         0.4155
     42 H15         7.3597    5.8293   -6.7972 H         1 <0>         0.1073
     43 H16         5.3851    6.9875   -5.8288 H         1 <0>         0.1018
     44 H17         4.1425    5.9259   -3.9923 H         1 <0>         0.1256
@<TRIPOS>BOND
     1    1    6 ar
     2    1    2 ar
     3    1   28 1
     4    2    3 ar
     5    2   29 1
     6    3    4 ar
     7    3   30 1
     8    4   10 1
     9    4    5 ar
    10    5    6 ar
    11    5    7 1
    12    6   31 1
    13    7    8 1
    14    7   32 1
    15    7   33 1
    16    8    9 1
    17    8   34 1
    18    8   35 1
    19    9   10 1
    20    9   36 1
    21    9   37 1
    22   10   16 1
    23   10   11 1
    24   11   12 2
    25   11   13 am
    26   13   14 am
    27   13   17 1
    28   14   15 2
    29   14   16 am
    30   16   38 1
    31   17   18 1
    32   17   39 1
    33   17   40 1
    34   18   19 2
    35   18   20 am
    36   20   41 1
    37   20   21 1
    38   21   22 ar
    39   21   26 ar
    40   22   27 1
    41   22   23 ar
    42   23   24 ar
    43   23   42 1
    44   24   25 ar
    45   24   43 1
    46   25   26 ar
    47   25   44 1
@<TRIPOS>MOLECULE
ZINC44335241
   30    30     0     0     0
SMALL
USER_CHARGES

@<TRIPOS>ATOM
      1 C1         -0.0173    1.4248    0.0099 C.3       1 <0>         0.0284
      2 O1          0.0021   -0.0041    0.0020 O.3       1 <0>        -0.3268
      3 C2         -1.1855   -0.6297    0.0100 C.2       1 <0>         0.4535
      4 O2         -2.2076    0.0145    0.0232 O.2       1 <0>        -0.4767
      5 C3         -1.2439   -2.1355    0.0025 C.3       1 <0>         0.0429
      6 H1         -0.4651   -2.5326    0.6535 H         1 <0>         0.1816
      7 C4         -1.0270   -2.6472   -1.4230 C.3       1 <0>        -0.0866
      8 C5         -0.9629   -4.1528   -1.4120 C.ar      1 <0>        -0.1488
      9 C6          0.2599   -4.7922   -1.3435 C.ar      1 <0>        -0.0037
     10 C7          0.3194   -6.1738   -1.3333 C.ar      1 <0>        -0.1131
     11 C8         -0.8449   -6.9188   -1.3923 C.ar      1 <0>         0.0069
     12 C9         -2.0695   -6.2838   -1.4609 C.ar      1 <0>        -0.0607
     13 C10        -2.1318   -4.8977   -1.4649 C.ar      1 <0>         0.1725
     14 O3         -3.3361   -4.2707   -1.5263 O.3       1 <0>        -0.4953
     15 N1         -3.3147   -7.0813   -1.5244 N.pl3     1 <0>         0.0265
     16 O4         -3.2601   -8.2890   -1.5162 O.2       1 <0>        -0.1380
     17 O5         -4.3864   -6.5250   -1.5844 O.3       1 <0>        -0.1214
     18 I1          2.1753   -7.1402   -1.2294 I         1 <0>         0.0367
     19 N2         -2.5588   -2.5769    0.4864 N.4       1 <0>        -0.6201
     20 H2          1.0053    1.8021    0.0021 H         1 <0>         0.1231
     21 H3         -0.5445    1.7859   -0.8732 H         1 <0>         0.0760
     22 H4         -0.5275    1.7763    0.9067 H         1 <0>         0.0754
     23 H5         -1.8539   -2.3234   -2.0551 H         1 <0>         0.1198
     24 H6         -0.0919   -2.2466   -1.8145 H         1 <0>         0.1450
     25 H7          1.1701   -4.2126   -1.2981 H         1 <0>         0.1658
     26 H8         -0.7961   -7.9976   -1.3850 H         1 <0>         0.1738
     27 H9         -3.6419   -4.0936   -2.4264 H         1 <0>         0.4297
     28 H10        -2.7019   -2.2395    1.4264 H         1 <0>         0.4430
     29 H11        -3.2798   -2.2094   -0.1163 H         1 <0>         0.4468
     30 H12        -2.5980   -3.5852    0.4813 H         1 <0>         0.4439
@<TRIPOS>BOND
     1    1    2 1
     2    1   20 1
     3    1   21 1
     4    1   22 1
     5    2    3 1
     6    3    4 2
     7    3    5 1
     8    5    6 1
     9    5    7 1
    10    5   19 1
    11    7    8 1
    12    7   23 1
    13    7   24 1
    14    8   13 ar
    15    8    9 ar
    16    9   10 ar
    17    9   25 1
    18   10   11 ar
    19   10   18 1
    20   11   12 ar
    21   11   26 1
    22   12   13 ar
    23   12   15 1
    24   13   14 1
    25   14   27 1
    26   15   16 2
    27   15   17 1
    28   19   28 1
    29   19   29 1
    30   19   30 1
@<TRIPOS>MOLECULE
ZINC58214190
   50    52     0     0     0
SMALL
USER_CHARGES

@<TRIPOS>ATOM
      1 C1          0.0015    1.5089    0.0514 C.3       1 <0>        -0.0882
      2 C2          0.0194    0.0021    0.0355 C.2       1 <0>         0.3339
      3 N1         -1.0281   -0.7746    0.0266 N.2       1 <0>        -0.5682
      4 C3         -0.6486   -2.0573    0.0133 C.2       1 <0>         0.2041
      5 N2          0.6523   -2.1123    0.0136 N.2       1 <0>        -0.2808
      6 O1          1.1136   -0.7695    0.0222 O.3       1 <0>        -0.0708
      7 C4         -1.5757   -3.2453    0.0006 C.3       1 <0>         0.1688
      8 C5         -2.3697   -3.2586   -1.3072 C.3       1 <0>        -0.1352
      9 C6         -3.3110   -4.4647   -1.3201 C.3       1 <0>        -0.1351
     10 C7         -2.4920   -5.7521   -1.2076 C.3       1 <0>        -0.1357
     11 C8         -1.6980   -5.7388    0.1002 C.3       1 <0>        -0.1351
     12 C9         -0.7567   -4.5327    0.1131 C.3       1 <0>        -0.1374
     13 N3         -2.5036   -3.1545    1.1359 N.4       1 <0>        -0.4875
     14 C10        -3.2900   -1.9184    1.0278 C.3       1 <0>        -0.0536
     15 C11        -4.2419   -1.8252    2.1925 C.2       1 <0>         0.5153
     16 O2         -4.2630   -2.7018    3.0297 O.2       1 <0>        -0.4549
     17 N4         -5.0696   -0.7674    2.3033 N.am      1 <0>        -0.6734
     18 C12        -5.9209   -0.6841    3.3449 C.2       1 <0>         0.6936
     19 O3         -5.9421   -1.5629    4.1842 O.2       1 <0>        -0.4993
     20 N5         -6.7486    0.3738    3.4557 N.am      1 <0>        -0.6668
     21 C13        -7.6988    0.4142    4.4822 C.ar      1 <0>         0.1386
     22 C14        -8.9426    0.9892    4.2568 C.ar      1 <0>        -0.1363
     23 C15        -9.8782    1.0275    5.2720 C.ar      1 <0>        -0.0995
     24 C16        -9.5775    0.4941    6.5118 C.ar      1 <0>        -0.1222
     25 C17        -8.3397   -0.0788    6.7396 C.ar      1 <0>        -0.1005
     26 C18        -7.4020   -0.1258    5.7267 C.ar      1 <0>        -0.1171
     27 H1          1.0247    1.8845    0.0510 H         1 <0>         0.1116
     28 H2         -0.5205    1.8754   -0.8325 H         1 <0>         0.1230
     29 H3         -0.5128    1.8567    0.9473 H         1 <0>         0.1204
     30 H4         -2.9532   -2.3415   -1.3873 H         1 <0>         0.1022
     31 H5         -1.6813   -3.3260   -2.1496 H         1 <0>         0.1201
     32 H6         -3.9995   -4.3973   -0.4777 H         1 <0>         0.0613
     33 H7         -3.8767   -4.4742   -2.2518 H         1 <0>         0.1041
     34 H8         -3.1625   -6.6114   -1.2168 H         1 <0>         0.0890
     35 H9         -1.8035   -5.8195   -2.0499 H         1 <0>         0.0843
     36 H10        -2.3864   -5.6714    0.9426 H         1 <0>         0.0639
     37 H11        -1.1145   -6.6560    0.1804 H         1 <0>         0.1043
     38 H12        -0.0682   -4.6001   -0.7293 H         1 <0>         0.1247
     39 H13        -0.1910   -4.5232    1.0448 H         1 <0>         0.1000
     40 H14        -3.1244   -3.9499    1.1274 H         1 <0>         0.4407
     41 H15        -2.6194   -1.0592    1.0370 H         1 <0>         0.1955
     42 H16        -3.8557   -1.9279    0.0961 H         1 <0>         0.1719
     43 H17        -5.0527   -0.0660    1.6334 H         1 <0>         0.4209
     44 H18        -6.6857    1.1071    2.8239 H         1 <0>         0.4125
     45 H19        -9.1779    1.4063    3.2888 H         1 <0>         0.1279
     46 H20       -10.8456    1.4749    5.0974 H         1 <0>         0.1320
     47 H21       -10.3109    0.5253    7.3041 H         1 <0>         0.1290
     48 H22        -8.1078   -0.4942    7.7092 H         1 <0>         0.1299
     49 H23        -6.4373   -0.5779    5.9037 H         1 <0>         0.1378
     50 H24        -1.9800   -3.1457    1.9983 H         1 <0>         0.4361
@<TRIPOS>BOND
     1    1    2 1
     2    1   27 1
     3    1   28 1
     4    1   29 1
     5    2    6 1
     6    2    3 2
     7    3    4 1
     8    4    5 2
     9    4    7 1
    10    5    6 1
    11    7   12 1
    12    7    8 1
    13    7   13 1
    14    8    9 1
    15    8   30 1
    16    8   31 1
    17    9   10 1
    18    9   32 1
    19    9   33 1
    20   10   11 1
    21   10   34 1
    22   10   35 1
    23   11   12 1
    24   11   36 1
    25   11   37 1
    26   12   38 1
    27   12   39 1
    28   13   14 1
    29   13   40 1
    30   13   50 1
    31   14   15 1
    32   14   41 1
    33   14   42 1
    34   15   16 2
    35   15   17 am
    36   17   18 am
    37   17   43 1
    38   18   19 2
    39   18   20 am
    40   20   21 1
    41   20   44 1
    42   21   26 ar
    43   21   22 ar
    44   22   23 ar
    45   22   45 1
    46   23   24 ar
    47   23   46 1
    48   24   25 ar
    49   24   47 1
    50   25   26 ar
    51   25   48 1
    52   26   49 1
@<TRIPOS>MOLECULE
ZINC63351393
   49    53     0     0     0
SMALL
USER_CHARGES

@<TRIPOS>ATOM
      1 C1         -0.0187    1.5258    0.0104 C.3       1 <0>        -0.1563
      2 C2          0.0021   -0.0041    0.0020 C.3       1 <0>         0.1318
      3 C3          0.7257   -0.5579   -1.2310 C.3       1 <0>         0.0961
      4 H1          0.4839   -1.6098   -1.3834 H         1 <0>         0.1857
      5 C4          2.2168   -0.3727   -0.9751 C.2       1 <0>         0.0722
      6 C5          2.6812    0.3574   -1.9846 C.ar      1 <0>        -0.1610
      7 C6          4.0419    0.8070   -2.3199 C.ar      1 <0>         0.0041
      8 C7          4.1629    1.5629   -3.4433 C.ar      1 <0>        -0.1590
      9 C8          3.0798    1.9127   -4.2555 C.ar      1 <0>         0.0579
     10 C9          1.7961    1.5387   -4.0251 C.ar      1 <0>        -0.2058
     11 C10         1.5424    0.7372   -2.8740 C.ar      1 <0>         0.3361
     12 N1          0.4181    0.2276   -2.4288 N.pl3     1 <0>        -0.5771
     13 C11         2.9175   -0.8985    0.2538 C.3       1 <0>        -0.1055
     14 C12         2.1214   -0.4033    1.4778 C.3       1 <0>         0.1482
     15 N2          0.6925   -0.5566    1.1893 N.am      1 <0>        -0.6166
     16 C13        -0.2293   -1.2190    1.8991 C.2       1 <0>         0.7226
     17 O1         -0.0157   -1.7208    2.9851 O.2       1 <0>        -0.5008
     18 N3         -1.4143   -1.2651    1.2756 N.am      1 <0>        -0.5123
     19 C14        -1.3896   -0.5888    0.1087 C.2       1 <0>         0.5445
     20 O2         -2.2951   -0.4729   -0.6890 O.2       1 <0>        -0.4458
     21 C15        -2.5366   -1.9313    1.7725 C.ar      1 <0>         0.1721
     22 C16        -3.4398   -1.2633    2.5871 C.ar      1 <0>        -0.0993
     23 C17        -4.5490   -1.9234    3.0770 C.ar      1 <0>        -0.0750
     24 C18        -4.7693   -3.2540    2.7607 C.ar      1 <0>        -0.0987
     25 C19        -3.8824   -3.9332    1.9534 C.ar      1 <0>        -0.0784
     26 C20        -2.7591   -3.2765    1.4459 C.ar      1 <0>        -0.1164
     27 C21        -1.8088   -3.9960    0.5760 C.2       1 <0>         0.5718
     28 O3         -0.8293   -3.4223    0.1402 O.2       1 <0>        -0.5445
     29 N4         -2.0265   -5.2891    0.2646 N.am      1 <0>        -0.5638
     30 N5         -1.1468   -5.9552   -0.5407 N.3       1 <0>        -0.5981
     31 H2          1.0039    1.9031    0.0027 H         1 <0>         0.0880
     32 H3         -0.5459    1.8868   -0.8726 H         1 <0>         0.0883
     33 H4         -0.5289    1.8773    0.9072 H         1 <0>         0.0970
     34 H5          4.8949    0.5514   -1.7088 H         1 <0>         0.1720
     35 H6          5.1461    1.9115   -3.7227 H         1 <0>         0.1564
     36 H7          3.2785    2.5214   -5.1252 H         1 <0>         0.1590
     37 H8          0.9973    1.8374   -4.6878 H         1 <0>         0.1699
     38 H9          2.9313   -1.9882    0.2358 H         1 <0>         0.1326
     39 H10         3.9367   -0.5139    0.2933 H         1 <0>         0.1309
     40 H11         2.3855   -0.9972    2.3528 H         1 <0>         0.1307
     41 H12         2.3483    0.6466    1.6636 H         1 <0>         0.0992
     42 H13        -3.2747   -0.2260    2.8384 H         1 <0>         0.1388
     43 H14        -5.2490   -1.3993    3.7110 H         1 <0>         0.1468
     44 H15        -5.6399   -3.7617    3.1489 H         1 <0>         0.1460
     45 H16        -4.0581   -4.9706    1.7101 H         1 <0>         0.1378
     46 H17        -2.8079   -5.7468    0.6122 H         1 <0>         0.4052
     47 H18        -1.4399   -6.9099   -0.6846 H         1 <0>         0.3665
     48 H19        -1.0288   -5.4765   -1.4211 H         1 <0>         0.3463
     49 H20        -0.4627    0.3482   -2.8167 H         1 <0>         0.4598
@<TRIPOS>BOND
     1    1    2 1
     2    1   31 1
     3    1   32 1
     4    1   33 1
     5    2   15 1
     6    2   19 1
     7    2    3 1
     8    3    4 1
     9    3   12 1
    10    3    5 1
    11    5    6 2
    12    5   13 1
    13    6   11 ar
    14    6    7 ar
    15    7    8 ar
    16    7   34 1
    17    8    9 ar
    18    8   35 1
    19    9   10 ar
    20    9   36 1
    21   10   11 ar
    22   10   37 1
    23   11   12 2
    24   12   49 1
    25   13   14 1
    26   13   38 1
    27   13   39 1
    28   14   15 1
    29   14   40 1
    30   14   41 1
    31   15   16 am
    32   16   17 2
    33   16   18 am
    34   18   19 am
    35   18   21 1
    36   19   20 2
    37   21   26 ar
    38   21   22 ar
    39   22   23 ar
    40   22   42 1
    41   23   24 ar
    42   23   43 1
    43   24   25 ar
    44   24   44 1
    45   25   26 ar
    46   25   45 1
    47   26   27 1
    48   27   28 2
    49   27   29 am
    50   29   30 1
    51   29   46 1
    52   30   47 1
    53   30   48 1
@<TRIPOS>MOLECULE
ZINC65964791
   61    62     0     0     0
SMALL
USER_CHARGES

@<TRIPOS>ATOM
      1 C1          0.3525    0.4061    1.9382 C.3       1 <0>        -0.1641
      2 C2          0.2916   -0.9113    1.1624 C.3       1 <0>         0.1498
      3 C3          1.1684   -1.9541    1.8587 C.3       1 <0>        -0.1678
      4 N1         -1.0928   -1.3883    1.1181 N.am      1 <0>        -0.7228
      5 C4         -1.4936   -2.2020    0.1213 C.2       1 <0>         0.6912
      6 O1         -0.7065   -2.5400   -0.7409 O.2       1 <0>        -0.5158
      7 N2         -2.7673   -2.6409    0.0805 N.am      1 <0>        -0.6771
      8 C5         -3.1681   -3.4546   -0.9163 C.2       1 <0>         0.5124
      9 O2         -2.3829   -3.7917   -1.7764 O.2       1 <0>        -0.4444
     10 C6         -4.5922   -3.9453   -0.9619 C.3       1 <0>         0.0077
     11 C7         -5.4587   -2.9277   -1.7065 C.3       1 <0>        -0.1815
     12 N3         -4.6431   -5.2364   -1.6609 N.4       1 <0>        -0.3741
     13 C8         -3.8502   -6.2242   -0.9193 C.3       1 <0>        -0.0132
     14 C9         -3.8331   -7.5489   -1.6850 C.3       1 <0>        -0.1237
     15 C10        -5.2683   -8.0591   -1.8436 C.3       1 <0>        -0.1226
     16 C11        -6.1044   -6.9897   -2.5525 C.3       1 <0>        -0.1387
     17 C12        -6.0373   -5.6857   -1.7546 C.3       1 <0>        -0.0081
     18 C13        -5.2661   -9.3230   -2.6643 C.2       1 <0>         0.5156
     19 O3         -4.2201   -9.7729   -3.0821 O.2       1 <0>        -0.5223
     20 N4         -6.4264   -9.9535   -2.9339 N.am      1 <0>        -0.7212
     21 C14        -6.4242  -11.1822   -3.7318 C.3       1 <0>         0.1426
     22 C15        -6.4425  -10.8244   -5.2193 C.3       1 <0>        -0.1263
     23 C16        -6.4402  -12.1076   -6.0525 C.3       1 <0>        -0.1198
     24 C17        -7.6790  -12.9387   -5.7125 C.3       1 <0>        -0.1241
     25 C18        -7.6606  -13.2965   -4.2250 C.3       1 <0>        -0.1185
     26 C19        -7.6629  -12.0133   -3.3918 C.3       1 <0>        -0.1259
     27 H1          1.3826    0.7611    1.9711 H         1 <0>         0.0824
     28 H2         -0.2721    1.1490    1.4422 H         1 <0>         0.0646
     29 H3         -0.0095    0.2467    2.9538 H         1 <0>         0.0647
     30 H4          0.6537   -0.7519    0.1468 H         1 <0>         0.0946
     31 H5          1.1250   -2.8926    1.3060 H         1 <0>         0.0602
     32 H6          2.1984   -1.5991    1.8916 H         1 <0>         0.0750
     33 H7          0.8063   -2.1134    2.8744 H         1 <0>         0.0597
     34 H8         -1.7210   -1.1186    1.8063 H         1 <0>         0.4014
     35 H9         -3.3955   -2.3712    0.7687 H         1 <0>         0.4172
     36 H10        -4.9672   -4.0673    0.0543 H         1 <0>         0.1635
     37 H11        -5.0838   -2.8058   -2.7227 H         1 <0>         0.0935
     38 H12        -6.4888   -3.2827   -1.7395 H         1 <0>         0.1035
     39 H13        -5.4210   -1.9698   -1.1879 H         1 <0>         0.1132
     40 H14        -2.8299   -5.8583   -0.8044 H         1 <0>         0.1346
     41 H15        -4.2924   -6.3796    0.0648 H         1 <0>         0.1331
     42 H16        -3.3908   -7.3947   -2.6692 H         1 <0>         0.1008
     43 H17        -3.2454   -8.2815   -1.1318 H         1 <0>         0.1222
     44 H18        -5.6937   -8.2621   -0.8607 H         1 <0>         0.1169
     45 H19        -5.7092   -6.8239   -3.5547 H         1 <0>         0.0980
     46 H20        -7.1402   -7.3226   -2.6194 H         1 <0>         0.1203
     47 H21        -6.4329   -5.8526   -0.7527 H         1 <0>         0.1367
     48 H22        -6.6317   -4.9222   -2.2564 H         1 <0>         0.1419
     49 H23        -7.2629   -9.5937   -2.5998 H         1 <0>         0.3995
     50 H24        -5.5269  -11.7591   -3.5079 H         1 <0>         0.0915
     51 H25        -7.3398  -10.2475   -5.4431 H         1 <0>         0.0636
     52 H26        -5.5600  -10.2323   -5.4615 H         1 <0>         0.0650
     53 H27        -6.4533  -11.8528   -7.1122 H         1 <0>         0.0682
     54 H28        -5.5430  -12.6846   -5.8286 H         1 <0>         0.0661
     55 H29        -8.5763  -12.3617   -5.9363 H         1 <0>         0.0636
     56 H30        -7.6774  -13.8529   -6.3061 H         1 <0>         0.0683
     57 H31        -8.5432  -13.8885   -3.9828 H         1 <0>         0.0713
     58 H32        -6.7634  -13.8734   -4.0011 H         1 <0>         0.0670
     59 H33        -7.6498  -12.2681   -2.3321 H         1 <0>         0.0692
     60 H34        -8.5602  -11.4363   -3.6156 H         1 <0>         0.0687
     61 H35        -4.2619   -5.1304   -2.5891 H         1 <0>         0.4326
@<TRIPOS>BOND
     1    1    2 1
     2    1   27 1
     3    1   28 1
     4    1   29 1
     5    2    3 1
     6    2    4 1
     7    2   30 1
     8    3   31 1
     9    3   32 1
    10    3   33 1
    11    4    5 am
    12    4   34 1
    13    5    6 2
    14    5    7 am
    15    7    8 am
    16    7   35 1
    17    8    9 2
    18    8   10 1
    19   10   11 1
    20   10   12 1
    21   10   36 1
    22   11   37 1
    23   11   38 1
    24   11   39 1
    25   12   17 1
    26   12   13 1
    27   12   61 1
    28   13   14 1
    29   13   40 1
    30   13   41 1
    31   14   15 1
    32   14   42 1
    33   14   43 1
    34   15   16 1
    35   15   18 1
    36   15   44 1
    37   16   17 1
    38   16   45 1
    39   16   46 1
    40   17   47 1
    41   17   48 1
    42   18   19 2
    43   18   20 am
    44   20   21 1
    45   20   49 1
    46   21   26 1
    47   21   22 1
    48   21   50 1
    49   22   23 1
    50   22   51 1
    51   22   52 1
    52   23   24 1
    53   23   53 1
    54   23   54 1
    55   24   25 1
    56   24   55 1
    57   24   56 1
    58   25   26 1
    59   25   57 1
    60   25   58 1
    61   26   59 1
    62   26   60 1
@<TRIPOS>MOLECULE
ZINC09542575
   61    64     0     0     0
SMALL
USER_CHARGES
2-[2-(3-bromo-4-methoxy-phenyl)-6-(3-methoxyphenyl)-2,3,4,5-tetrahydropyrimidin-4-yl]-6-ethoxy-phenol
@<TRIPOS>ATOM
      1 C1         -4.7338   -0.6136    7.8176 C.3       1 <0>        -0.1554
      2 C2         -5.2796   -0.1102    6.4798 C.3       1 <0>         0.0499
      3 O1         -4.3504    0.8089    5.9018 O.3       1 <0>        -0.2980
      4 C3         -4.6860    1.3534    4.7017 C.ar      1 <0>         0.1302
      5 C4         -5.8831    1.0104    4.0940 C.ar      1 <0>        -0.1758
      6 C5         -6.2227    1.5648    2.8740 C.ar      1 <0>        -0.0615
      7 C6         -5.3704    2.4620    2.2577 C.ar      1 <0>        -0.1586
      8 C7         -4.1747    2.8088    2.8587 C.ar      1 <0>        -0.1250
      9 C8         -3.8257    2.2525    4.0789 C.ar      1 <0>         0.1068
     10 O2         -2.6475    2.5886    4.6690 O.3       1 <0>        -0.4778
     11 C9         -3.2481    3.7872    2.1840 C.3       1 <0>         0.0874
     12 H1         -2.2149    3.4662    2.3163 H         1 <0>         0.1603
     13 C10        -3.4387    5.1813    2.7894 C.3       1 <0>        -0.1370
     14 C11        -2.7614    6.2029    1.9188 C.2       1 <0>         0.2730
     15 N1         -2.3903    5.9621    0.7181 N.2       1 <0>        -0.5144
     16 C12        -2.5645    4.6787    0.0497 C.3       1 <0>         0.2672
     17 H2         -2.8925    4.8500   -0.9755 H         1 <0>         0.1765
     18 C13        -1.2485    3.9446    0.0337 C.ar      1 <0>        -0.1879
     19 C14        -0.0621    4.6549    0.0267 C.ar      1 <0>        -0.0105
     20 C15         1.1458    3.9847    0.0120 C.ar      1 <0>        -0.1953
     21 C16         1.1684    2.5977    0.0049 C.ar      1 <0>         0.1887
     22 C17        -0.0236    1.8867    0.0124 C.ar      1 <0>        -0.1214
     23 C18        -1.2296    2.5623    0.0218 C.ar      1 <0>        -0.0550
     24 Br1         0.0021   -0.0041    0.0020 Br        1 <0>        -0.0062
     25 O3          2.3556    1.9362   -0.0100 O.3       1 <0>        -0.2927
     26 C19         3.5420    2.7327   -0.0171 C.3       1 <0>         0.0185
     27 C20        -2.5131    7.5475    2.4753 C.ar      1 <0>        -0.0583
     28 C21        -2.9093    7.8503    3.7799 C.ar      1 <0>        -0.1234
     29 C22        -2.6721    9.1067    4.2979 C.ar      1 <0>        -0.0798
     30 C23        -2.0509   10.0716    3.5263 C.ar      1 <0>        -0.1740
     31 C24        -1.6578    9.7817    2.2269 C.ar      1 <0>         0.1256
     32 C25        -1.8868    8.5225    1.6980 C.ar      1 <0>        -0.0941
     33 O4         -1.0481   10.7343    1.4732 O.3       1 <0>        -0.3128
     34 C26        -0.8434   12.0107    2.0822 C.3       1 <0>         0.0231
     35 H3         -5.4425   -1.3146    8.2584 H         1 <0>         0.0860
     36 H4         -3.7798   -1.1153    7.6551 H         1 <0>         0.0703
     37 H5         -4.5902    0.2304    8.4922 H         1 <0>         0.0696
     38 H6         -6.2335    0.3915    6.6422 H         1 <0>         0.0684
     39 H7         -5.4231   -0.9542    5.8052 H         1 <0>         0.0686
     40 H8         -6.5511    0.3103    4.5737 H         1 <0>         0.1456
     41 H9         -7.1561    1.2966    2.4014 H         1 <0>         0.1432
     42 H10        -5.6394    2.8932    1.3048 H         1 <0>         0.1224
     43 H11        -2.7068    3.3530    5.2584 H         1 <0>         0.3940
     44 H12        -4.4152    5.3885    2.8482 H         1 <0>         0.1142
     45 H13        -3.0012    5.2070    3.7873 H         1 <0>         0.1403
     46 H14        -0.0798    5.7347    0.0323 H         1 <0>         0.1515
     47 H15         2.0720    4.5402    0.0058 H         1 <0>         0.1514
     48 H16        -2.1576    2.0099    0.0232 H         1 <0>         0.1304
     49 H17         3.5488    3.3666   -0.9038 H         1 <0>         0.0658
     50 H18         3.5658    3.3570    0.8761 H         1 <0>         0.0649
     51 H19         4.4164    2.0820   -0.0289 H         1 <0>         0.1150
     52 H20        -3.3980    7.1002    4.3840 H         1 <0>         0.1310
     53 H21        -2.9762    9.3387    5.3079 H         1 <0>         0.1377
     54 H22        -1.8713   11.0546    3.9360 H         1 <0>         0.1380
     55 H23        -1.5815    8.2957    0.6872 H         1 <0>         0.1466
     56 H24        -1.8057   12.4352    2.3684 H         1 <0>         0.0603
     57 H25        -0.2195   11.8946    2.9683 H         1 <0>         0.0602
     58 H26        -0.3490   12.6759    1.3743 H         1 <0>         0.1077
     59 N2         -3.5691    3.8601    0.7453 N.4       1 <0>        -0.5461
     60 H27        -4.4966    4.2836    0.6243 H         1 <0>         0.4349
     61 H28        -3.5708    2.9131    0.3484 H         1 <0>         0.4359
@<TRIPOS>BOND
     1    1    2 1
     2    1   35 1
     3    1   36 1
     4    1   37 1
     5    2    3 1
     6    2   38 1
     7    2   39 1
     8    3    4 1
     9    4    9 ar
    10    4    5 ar
    11    5    6 ar
    12    5   40 1
    13    6    7 ar
    14    6   41 1
    15    7    8 ar
    16    7   42 1
    17    8    9 ar
    18    8   11 1
    19    9   10 1
    20   10   43 1
    21   11   12 1
    22   11   13 1
    23   11   59 1
    24   13   14 1
    25   13   44 1
    26   13   45 1
    27   14   15 2
    28   14   27 1
    29   15   16 1
    30   16   17 1
    31   16   18 1
    32   16   59 1
    33   18   23 ar
    34   18   19 ar
    35   19   20 ar
    36   19   46 1
    37   20   21 ar
    38   20   47 1
    39   21   22 ar
    40   21   25 1
    41   22   23 ar
    42   22   24 1
    43   23   48 1
    44   25   26 1
    45   26   49 1
    46   26   50 1
    47   26   51 1
    48   27   32 ar
    49   27   28 ar
    50   28   29 ar
    51   28   52 1
    52   29   30 ar
    53   29   53 1
    54   30   31 ar
    55   30   54 1
    56   31   32 ar
    57   31   33 1
    58   32   55 1
    59   33   34 1
    60   34   56 1
    61   34   57 1
    62   34   58 1
    63   59   60 1
    64   59   61 1
@<TRIPOS>MOLECULE
ZINC34757477
   71    75     0     0     0
SMALL
USER_CHARGES

@<TRIPOS>ATOM
      1 C1          1.0696   -4.2721    0.8986 C.3       1 <0>        -0.1457
      2 C2          0.1626   -5.5005    0.9938 C.3       1 <0>        -0.0575
      3 C3          0.3367   -6.1581    2.3643 C.3       1 <0>        -0.1448
      4 C4         -1.2736   -5.0794    0.8176 C.ar      1 <0>        -0.0869
      5 C5         -1.8388   -4.1712    1.6939 C.ar      1 <0>        -0.0947
      6 C6         -3.1548   -3.7833    1.5350 C.ar      1 <0>        -0.1431
      7 C7         -3.9104   -4.3062    0.4940 C.ar      1 <0>         0.1495
      8 C8         -3.3399   -5.2181   -0.3843 C.ar      1 <0>        -0.1175
      9 C9         -2.0218   -5.5977   -0.2235 C.ar      1 <0>        -0.0991
     10 N1         -5.2443   -3.9155    0.3306 N.am      1 <0>        -0.6832
     11 C10        -5.7769   -3.8368   -0.9050 C.2       1 <0>         0.7145
     12 O1         -5.1255   -4.1842   -1.8711 O.2       1 <0>        -0.5595
     13 N2         -7.0315   -3.3728   -1.0697 N.am      1 <0>        -0.6298
     14 C11        -7.6855   -3.3864   -2.3887 C.3       1 <0>         0.1276
     15 C12        -8.8903   -4.3236   -2.3099 C.3       1 <0>        -0.0906
     16 C13        -9.7069   -4.0402   -1.0787 C.ar      1 <0>         0.2682
     17 C14        -9.2057   -3.3708    0.0122 C.ar      1 <0>        -0.2493
     18 C15       -10.0377   -3.1689    1.1169 C.ar      1 <0>         0.4120
     19 N3        -11.2851   -3.6187    1.0794 N.ar      1 <0>        -0.6074
     20 C16       -11.7371   -4.2519    0.0073 C.ar      1 <0>         0.6002
     21 N4        -10.9693   -4.4606   -1.0493 N.ar      1 <0>        -0.5790
     22 N5        -13.0444   -4.7060   -0.0076 N.pl3     1 <0>        -0.6020
     23 C17       -13.5506   -5.5173   -1.1254 C.3       1 <0>         0.1078
     24 C18       -14.2282   -6.7660   -0.5516 C.3       1 <0>        -0.0220
     25 N6        -15.2544   -6.3629    0.4181 N.4       1 <0>        -0.3861
     26 C19       -14.6249   -5.6935    1.5634 C.3       1 <0>        -0.0213
     27 C20       -13.9653   -4.3963    1.0970 C.3       1 <0>         0.1028
     28 C21       -15.9779   -7.5528    0.8859 C.3       1 <0>        -0.0471
     29 O2         -9.5756   -2.5206    2.2135 O.3       1 <0>        -0.2185
     30 C22       -10.4121   -2.3893    3.2770 C.ar      1 <0>         0.0483
     31 C23       -11.2003   -3.4579    3.6771 C.ar      1 <0>        -0.0945
     32 C24       -12.0499   -3.3222    4.7583 C.ar      1 <0>        -0.1207
     33 C25       -12.1158   -2.1222    5.4420 C.ar      1 <0>        -0.0867
     34 C26       -11.3319   -1.0542    5.0466 C.ar      1 <0>        -0.1350
     35 C27       -10.4749   -1.1861    3.9687 C.ar      1 <0>         0.1101
     36 F1         -9.7045   -0.1445    3.5855 F         1 <0>        -0.1237
     37 C28        -7.8022   -2.8396    0.0601 C.3       1 <0>         0.1744
     38 H1          2.1084   -4.5767    1.0261 H         1 <0>         0.0594
     39 H2          0.9456   -3.8036   -0.0777 H         1 <0>         0.0564
     40 H3          0.8011   -3.5608    1.6796 H         1 <0>         0.0564
     41 H4          0.4311   -6.2119    0.2128 H         1 <0>         0.0781
     42 H5          0.0682   -5.4468    3.1453 H         1 <0>         0.0562
     43 H6         -0.3095   -7.0333    2.4322 H         1 <0>         0.0552
     44 H7          1.3755   -6.4627    2.4918 H         1 <0>         0.0593
     45 H8         -1.2506   -3.7651    2.5035 H         1 <0>         0.1261
     46 H9         -3.5957   -3.0742    2.2200 H         1 <0>         0.1233
     47 H10        -3.9252   -5.6268   -1.1948 H         1 <0>         0.1421
     48 H11        -1.5762   -6.3035   -0.9088 H         1 <0>         0.1252
     49 H12        -5.7855   -3.7014    1.1066 H         1 <0>         0.4040
     50 H13        -8.0175   -2.3805   -2.6455 H         1 <0>         0.0829
     51 H14        -6.9863   -3.7479   -3.1427 H         1 <0>         0.1162
     52 H15        -9.5127   -4.1829   -3.1935 H         1 <0>         0.1123
     53 H16        -8.5407   -5.3555   -2.2788 H         1 <0>         0.1044
     54 H17       -14.2745   -4.9389   -1.6994 H         1 <0>         0.0947
     55 H18       -12.7214   -5.8132   -1.7682 H         1 <0>         0.1417
     56 H19       -14.6933   -7.3309   -1.3594 H         1 <0>         0.1462
     57 H20       -13.4833   -7.3880   -0.0551 H         1 <0>         0.1321
     58 H21       -15.3824   -5.4680    2.3140 H         1 <0>         0.1457
     59 H22       -13.8681   -6.3479    1.9959 H         1 <0>         0.1322
     60 H23       -13.4103   -3.9514    1.9229 H         1 <0>         0.1398
     61 H24       -14.7319   -3.7028    0.7512 H         1 <0>         0.0934
     62 H25       -15.2780   -8.2401    1.3611 H         1 <0>         0.1216
     63 H26       -16.7401   -7.2549    1.6058 H         1 <0>         0.1260
     64 H27       -16.4524   -8.0463    0.0377 H         1 <0>         0.1264
     65 H28       -11.1504   -4.3956    3.1436 H         1 <0>         0.1375
     66 H29       -12.6636   -4.1546    5.0696 H         1 <0>         0.1347
     67 H30       -12.7813   -2.0188    6.2863 H         1 <0>         0.1419
     68 H31       -11.3855   -0.1179    5.5821 H         1 <0>         0.1504
     69 H32        -7.3318   -3.1420    0.9956 H         1 <0>         0.0902
     70 H33        -7.8271   -1.7515    0.0014 H         1 <0>         0.0918
     71 H34       -15.9036   -5.7300   -0.0246 H         1 <0>         0.4260
@<TRIPOS>BOND
     1    1    2 1
     2    1   38 1
     3    1   39 1
     4    1   40 1
     5    2    3 1
     6    2    4 1
     7    2   41 1
     8    3   42 1
     9    3   43 1
    10    3   44 1
    11    4    9 ar
    12    4    5 ar
    13    5    6 ar
    14    5   45 1
    15    6    7 ar
    16    6   46 1
    17    7    8 ar
    18    7   10 1
    19    8    9 ar
    20    8   47 1
    21    9   48 1
    22   10   11 am
    23   10   49 1
    24   11   12 2
    25   11   13 am
    26   13   37 1
    27   13   14 1
    28   14   15 1
    29   14   50 1
    30   14   51 1
    31   15   16 1
    32   15   52 1
    33   15   53 1
    34   16   21 ar
    35   16   17 ar
    36   17   18 ar
    37   17   37 1
    38   18   19 ar
    39   18   29 1
    40   19   20 ar
    41   20   21 ar
    42   20   22 1
    43   22   27 1
    44   22   23 1
    45   23   24 1
    46   23   54 1
    47   23   55 1
    48   24   25 1
    49   24   56 1
    50   24   57 1
    51   25   26 1
    52   25   28 1
    53   25   71 1
    54   26   27 1
    55   26   58 1
    56   26   59 1
    57   27   60 1
    58   27   61 1
    59   28   62 1
    60   28   63 1
    61   28   64 1
    62   29   30 1
    63   30   35 ar
    64   30   31 ar
    65   31   32 ar
    66   31   65 1
    67   32   33 ar
    68   32   66 1
    69   33   34 ar
    70   33   67 1
    71   34   35 ar
    72   34   68 1
    73   35   36 1
    74   37   69 1
    75   37   70 1
@<TRIPOS>MOLECULE
ZINC12374899
   69    75     0     0     0
SMALL
USER_CHARGES

@<TRIPOS>ATOM
      1 C1          0.0780    1.5967    0.1791 C.2       1 <0>        -0.2148
      2 C2          1.4340    1.9239   -0.0517 C.2       1 <0>        -0.1701
      3 C3          2.1365    0.7835    0.0722 C.2       1 <0>        -0.0510
      4 O1          1.2828   -0.2113    0.3641 O.3       1 <0>        -0.1688
      5 C4          0.0331    0.2760    0.4302 C.2       1 <0>        -0.0167
      6 C5          3.6284    0.6455   -0.0897 C.3       1 <0>         0.2497
      7 H1          4.1013    1.6204    0.0294 H         1 <0>         0.1116
      8 C6          3.9457    0.0860   -1.4809 C.3       1 <0>        -0.1590
      9 C7          5.4638    0.0074   -1.6782 C.3       1 <0>         0.1277
     10 H2          5.8738    1.0140   -1.7607 H         1 <0>         0.1407
     11 N1          6.0578   -0.6715   -0.5231 N.pl3     1 <0>        -0.3914
     12 C8          5.4305   -0.8039    0.6833 C.2       1 <0>         0.3816
     13 C9          6.2522   -1.4777    1.5119 C.2       1 <0>        -0.2601
     14 C10         7.4337   -1.7727    0.7946 C.2       1 <0>         0.0644
     15 N2          7.3068   -1.2836   -0.4264 N.2       1 <0>        -0.2691
     16 C11         8.6069   -2.5014    1.3189 C.2       1 <0>         0.6152
     17 O2          8.5602   -3.0178    2.4185 O.2       1 <0>        -0.4931
     18 N3          9.7291   -2.5938    0.5781 N.am      1 <0>        -0.6219
     19 C12         9.8651   -1.8515   -0.6847 C.3       1 <0>         0.0703
     20 C13        11.1963   -1.0932   -0.6614 C.3       1 <0>        -0.0278
     21 N4         12.2902   -2.0347   -0.3910 N.4       1 <0>        -0.3786
     22 C14        12.1374   -2.6062    0.9529 C.3       1 <0>        -0.0276
     23 C15        10.8550   -3.4350    1.0124 C.3       1 <0>         0.0919
     24 C16        13.5750   -1.3278   -0.4775 C.3       1 <0>         0.0601
     25 C17        13.6061   -0.1985    0.5543 C.3       1 <0>        -0.1259
     26 C18        14.9443    0.5378    0.4643 C.3       1 <0>        -0.0796
     27 C19        16.0854   -0.4418    0.7457 C.3       1 <0>        -0.1190
     28 C20        16.0542   -1.5711   -0.2861 C.3       1 <0>        -0.0788
     29 C21        14.7160   -2.3074   -0.1960 C.3       1 <0>        -0.1269
     30 C22        16.2201   -0.9845   -1.6894 C.3       1 <0>        -0.1192
     31 C23        15.0790   -0.0049   -1.9708 C.3       1 <0>        -0.0788
     32 C24        15.1102    1.1244   -0.9390 C.3       1 <0>        -0.1188
     33 C25        13.7409   -0.7412   -1.8808 C.3       1 <0>        -0.1266
     34 N5          4.1533   -0.2875    0.9268 N.pl3     1 <0>        -0.7212
     35 C26         5.7748   -0.7786   -2.9535 C.3       1 <0>         0.4584
     36 F1          5.1957   -0.1338   -4.0517 F         1 <0>        -0.1663
     37 F2          7.1606   -0.8491   -3.1316 F         1 <0>        -0.1671
     38 F3          5.2525   -2.0718   -2.8432 F         1 <0>        -0.1693
     39 H3         -0.7603    2.2774    0.1618 H         1 <0>         0.1562
     40 H4          1.8296    2.9016   -0.2836 H         1 <0>         0.1548
     41 H5         -0.8570   -0.2956    0.6484 H         1 <0>         0.2100
     42 H6          3.5161   -0.9112   -1.5766 H         1 <0>         0.1056
     43 H7          3.5152    0.7386   -2.2404 H         1 <0>         0.1295
     44 H8          6.0457   -1.7435    2.5381 H         1 <0>         0.1670
     45 H9          9.8554   -2.5488   -1.5224 H         1 <0>         0.0961
     46 H10         9.0421   -1.1437   -0.7839 H         1 <0>         0.1634
     47 H11        11.3590   -0.6147   -1.6271 H         1 <0>         0.1444
     48 H12        11.1686   -0.3341    0.1204 H         1 <0>         0.1336
     49 H13        12.9936   -3.2426    1.1767 H         1 <0>         0.1459
     50 H14        12.0812   -1.8013    1.6859 H         1 <0>         0.1354
     51 H15        10.6862   -3.7737    2.0346 H         1 <0>         0.1383
     52 H16        10.9470   -4.2950    0.3490 H         1 <0>         0.0970
     53 H17        12.7932    0.4994    0.3538 H         1 <0>         0.0851
     54 H18        13.4879   -0.6164    1.5541 H         1 <0>         0.0858
     55 H19        14.9665    1.3423    1.1994 H         1 <0>         0.0913
     56 H20        17.0387    0.0827    0.6816 H         1 <0>         0.0798
     57 H21        15.9672   -0.8597    1.7455 H         1 <0>         0.0705
     58 H22        16.8671   -2.2690   -0.0856 H         1 <0>         0.0924
     59 H23        14.5978   -2.7253    0.8037 H         1 <0>         0.0874
     60 H24        14.6938   -3.1119   -0.9311 H         1 <0>         0.0868
     61 H25        17.1734   -0.4599   -1.7535 H         1 <0>         0.0797
     62 H26        16.1979   -1.7890   -2.4245 H         1 <0>         0.0711
     63 H27        15.1972    0.4130   -2.9706 H         1 <0>         0.0922
     64 H28        14.2973    1.8223   -1.1395 H         1 <0>         0.0700
     65 H29        16.0635    1.6490   -1.0032 H         1 <0>         0.0798
     66 H30        13.7187   -1.5457   -2.6158 H         1 <0>         0.0868
     67 H31        12.9279   -0.0433   -2.0813 H         1 <0>         0.0869
     68 H32         3.6414   -0.5302    1.7142 H         1 <0>         0.4332
     69 H33        12.2705   -2.7765   -1.0748 H         1 <0>         0.4201
@<TRIPOS>BOND
     1    1    5 2
     2    1    2 1
     3    1   39 1
     4    2    3 2
     5    2   40 1
     6    3    4 1
     7    3    6 1
     8    4    5 1
     9    5   41 1
    10    6    7 1
    11    6   34 1
    12    6    8 1
    13    8    9 1
    14    8   42 1
    15    8   43 1
    16    9   10 1
    17    9   11 1
    18    9   35 1
    19   11   15 1
    20   11   12 1
    21   12   13 2
    22   12   34 1
    23   13   14 1
    24   13   44 1
    25   14   15 2
    26   14   16 1
    27   16   17 2
    28   16   18 am
    29   18   23 1
    30   18   19 1
    31   19   20 1
    32   19   45 1
    33   19   46 1
    34   20   21 1
    35   20   47 1
    36   20   48 1
    37   21   22 1
    38   21   24 1
    39   21   69 1
    40   22   23 1
    41   22   49 1
    42   22   50 1
    43   23   51 1
    44   23   52 1
    45   24   29 1
    46   24   33 1
    47   24   25 1
    48   25   26 1
    49   25   53 1
    50   25   54 1
    51   26   32 1
    52   26   27 1
    53   26   55 1
    54   27   28 1
    55   27   56 1
    56   27   57 1
    57   28   29 1
    58   28   30 1
    59   28   58 1
    60   29   59 1
    61   29   60 1
    62   30   31 1
    63   30   61 1
    64   30   62 1
    65   31   32 1
    66   31   33 1
    67   31   63 1
    68   32   64 1
    69   32   65 1
    70   33   66 1
    71   33   67 1
    72   34   68 1
    73   35   36 1
    74   35   37 1
    75   35   38 1
@<TRIPOS>MOLECULE
ZINC15319723
   72    78     0     0     0
SMALL
USER_CHARGES

@<TRIPOS>ATOM
      1 C1         -0.4609  -10.1973    6.5997 C.ar      1 <0>        -0.0685
      2 C2         -1.2422  -11.2888    6.2711 C.ar      1 <0>        -0.1473
      3 C3         -1.5385  -11.5533    4.9447 C.ar      1 <0>         0.1121
      4 C4         -1.0513  -10.7236    3.9489 C.ar      1 <0>        -0.1517
      5 C5         -0.2702   -9.6327    4.2800 C.ar      1 <0>        -0.0904
      6 C6          0.0249   -9.3696    5.6047 C.ar      1 <0>        -0.1326
      7 C7          0.8768   -8.1797    5.9644 C.3       1 <0>         0.1980
      8 H1          0.7186   -7.9192    7.0109 H         1 <0>         0.1277
      9 C8          2.3544   -8.5164    5.7354 C.3       1 <0>        -0.1519
     10 C9          2.5709   -8.9548    4.2826 C.3       1 <0>         0.1241
     11 H2          2.1086   -9.9288    4.1224 H         1 <0>         0.1383
     12 N1          1.9551   -7.9667    3.3923 N.pl3     1 <0>        -0.3900
     13 C10         0.9999   -7.0763    3.7935 C.2       1 <0>         0.3794
     14 C11         0.6592   -6.3194    2.7318 C.2       1 <0>        -0.2623
     15 C12         1.4296   -6.7571    1.6308 C.2       1 <0>         0.0637
     16 N2          2.2043   -7.7472    2.0381 N.2       1 <0>        -0.2690
     17 C13         1.3779   -6.2038    0.2620 C.2       1 <0>         0.6146
     18 O1          0.7197   -5.2076    0.0336 O.2       1 <0>        -0.4929
     19 N3          2.0603   -6.8035   -0.7335 N.am      1 <0>        -0.6221
     20 C14         2.1499   -6.1883   -2.0668 C.3       1 <0>         0.0925
     21 C15         1.7630   -7.2384   -3.1133 C.3       1 <0>        -0.0277
     22 N4          2.5994   -8.4327   -2.9395 N.4       1 <0>        -0.3784
     23 C16         2.3225   -9.0520   -1.6373 C.3       1 <0>        -0.0283
     24 C17         2.7419   -8.0890   -0.5160 C.3       1 <0>         0.0704
     25 C18         2.3048   -9.3947   -4.0098 C.3       1 <0>         0.0598
     26 C19         2.6035   -8.7549   -5.3671 C.3       1 <0>        -0.1267
     27 C20         2.2966   -9.7569   -6.4819 C.3       1 <0>        -0.0788
     28 C21         3.1674  -11.0020   -6.3024 C.3       1 <0>        -0.1192
     29 C22         2.8687  -11.6419   -4.9451 C.3       1 <0>        -0.0788
     30 C23         3.1756  -10.6399   -3.8303 C.3       1 <0>        -0.1267
     31 C24         1.3923  -12.0386   -4.8821 C.3       1 <0>        -0.1188
     32 C25         0.5216  -10.7934   -5.0616 C.3       1 <0>        -0.0796
     33 C26         0.8203  -10.1535   -6.4189 C.3       1 <0>        -0.1189
     34 C27         0.8285   -9.7914   -3.9468 C.3       1 <0>        -0.1258
     35 N5          0.5143   -7.0333    5.1079 N.pl3     1 <0>        -0.7191
     36 C28         4.0704   -9.0453    3.9927 C.3       1 <0>         0.4572
     37 F1          4.6561   -9.9803    4.8529 F         1 <0>        -0.1666
     38 F2          4.2657   -9.4455    2.6664 F         1 <0>        -0.1679
     39 F3          4.6607   -7.7930    4.1936 F         1 <0>        -0.1698
     40 F4         -2.3018  -12.6202    4.6222 F         1 <0>        -0.1331
     41 H3         -0.2334   -9.9884    7.6346 H         1 <0>         0.1414
     42 H4         -1.6214  -11.9355    7.0486 H         1 <0>         0.1437
     43 H5         -1.2815  -10.9291    2.9140 H         1 <0>         0.1349
     44 H6          0.1102   -8.9856    3.5035 H         1 <0>         0.1305
     45 H7          2.9626   -7.6359    5.9423 H         1 <0>         0.1070
     46 H8          2.6496   -9.3242    6.4051 H         1 <0>         0.1269
     47 H9         -0.0705   -5.5233    2.7237 H         1 <0>         0.1671
     48 H10         1.4654   -5.3422   -2.1264 H         1 <0>         0.1383
     49 H11         3.1707   -5.8508   -2.2466 H         1 <0>         0.0975
     50 H12         0.7143   -7.5078   -2.9875 H         1 <0>         0.1356
     51 H13         1.9160   -6.8297   -4.1121 H         1 <0>         0.1456
     52 H14         1.2569   -9.2664   -1.5561 H         1 <0>         0.1336
     53 H15         2.8878   -9.9797   -1.5484 H         1 <0>         0.1442
     54 H16         3.8214   -7.9401   -0.5418 H         1 <0>         0.0966
     55 H17         2.4489   -8.5000    0.4501 H         1 <0>         0.1636
     56 H18         1.9831   -7.8678   -5.4950 H         1 <0>         0.0873
     57 H19         3.6553   -8.4723   -5.4120 H         1 <0>         0.0868
     58 H20         2.5094   -9.3010   -7.4489 H         1 <0>         0.0924
     59 H21         2.9487  -11.7159   -7.0966 H         1 <0>         0.0798
     60 H22         4.2191  -10.7194   -6.3473 H         1 <0>         0.0711
     61 H23         3.4890  -12.5290   -4.8172 H         1 <0>         0.0922
     62 H24         4.2273  -10.3573   -3.8752 H         1 <0>         0.0868
     63 H25         2.9628  -11.0957   -2.8633 H         1 <0>         0.0868
     64 H26         1.1737  -12.7524   -5.6762 H         1 <0>         0.0799
     65 H27         1.1795  -12.4944   -3.9151 H         1 <0>         0.0699
     66 H28        -0.5302  -11.0760   -5.0167 H         1 <0>         0.0913
     67 H29         0.1999   -9.2665   -6.5468 H         1 <0>         0.0705
     68 H30         0.6016  -10.8674   -7.2131 H         1 <0>         0.0799
     69 H31         0.6157  -10.2472   -2.9798 H         1 <0>         0.0848
     70 H32         0.2081   -8.9043   -4.0747 H         1 <0>         0.0858
     71 H33        -0.0244   -6.2967    5.4366 H         1 <0>         0.4333
     72 H34         3.5725   -8.1698   -2.9854 H         1 <0>         0.4201
@<TRIPOS>BOND
     1    1    6 ar
     2    1    2 ar
     3    1   41 1
     4    2    3 ar
     5    2   42 1
     6    3    4 ar
     7    3   40 1
     8    4    5 ar
     9    4   43 1
    10    5    6 ar
    11    5   44 1
    12    6    7 1
    13    7    8 1
    14    7   35 1
    15    7    9 1
    16    9   10 1
    17    9   45 1
    18    9   46 1
    19   10   11 1
    20   10   12 1
    21   10   36 1
    22   12   16 1
    23   12   13 1
    24   13   14 2
    25   13   35 1
    26   14   15 1
    27   14   47 1
    28   15   16 2
    29   15   17 1
    30   17   18 2
    31   17   19 am
    32   19   24 1
    33   19   20 1
    34   20   21 1
    35   20   48 1
    36   20   49 1
    37   21   22 1
    38   21   50 1
    39   21   51 1
    40   22   23 1
    41   22   25 1
    42   22   72 1
    43   23   24 1
    44   23   52 1
    45   23   53 1
    46   24   54 1
    47   24   55 1
    48   25   30 1
    49   25   34 1
    50   25   26 1
    51   26   27 1
    52   26   56 1
    53   26   57 1
    54   27   33 1
    55   27   28 1
    56   27   58 1
    57   28   29 1
    58   28   59 1
    59   28   60 1
    60   29   30 1
    61   29   31 1
    62   29   61 1
    63   30   62 1
    64   30   63 1
    65   31   32 1
    66   31   64 1
    67   31   65 1
    68   32   33 1
    69   32   34 1
    70   32   66 1
    71   33   67 1
    72   33   68 1
    73   34   69 1
    74   34   70 1
    75   35   71 1
    76   36   37 1
    77   36   38 1
    78   36   39 1
@<TRIPOS>MOLECULE
ZINC64002373
   69    74     0     0     0
SMALL
USER_CHARGES

@<TRIPOS>ATOM
      1 C1         -0.0163    1.3482    0.0095 C.ar      1 <0>        -0.1533
      2 C2          1.1658    2.1014    0.0022 C.ar      1 <0>         0.0556
      3 C3          2.3912    1.5352   -0.0125 C.ar      1 <0>        -0.2115
      4 C4          2.5288    0.1198   -0.0218 C.ar      1 <0>         0.3272
      5 N1          3.5868   -0.6543   -0.0369 N.pl3     1 <0>        -0.5884
      6 C5          3.1432   -2.0528   -0.0408 C.3       1 <0>         0.0595
      7 C6          1.6315   -2.0084   -0.0255 C.2       1 <0>         0.0734
      8 C7          1.2951   -0.6984   -0.0144 C.ar      1 <0>        -0.1733
      9 C8          0.0021   -0.0041    0.0020 C.ar      1 <0>        -0.0091
     10 C9          0.6905   -3.1856   -0.0239 C.3       1 <0>        -0.0788
     11 C10         0.4565   -3.6534   -1.4617 C.3       1 <0>        -0.1386
     12 C11        -0.4845   -4.8305   -1.4601 C.2       1 <0>         0.5165
     13 O1         -0.9246   -5.2536   -0.4122 O.2       1 <0>        -0.5314
     14 N2         -0.8369   -5.4131   -2.6232 N.am      1 <0>        -0.6086
     15 C12        -0.3073   -4.9157   -3.9003 C.3       1 <0>         0.1094
     16 C13        -1.4808   -4.6236   -4.8405 C.3       1 <0>        -0.1484
     17 C14        -2.3524   -5.8753   -4.9663 C.3       1 <0>         0.1868
     18 C15        -2.9151   -6.2473   -3.5926 C.3       1 <0>        -0.1517
     19 C16        -1.7534   -6.5614   -2.6378 C.3       1 <0>         0.1146
     20 N3         -3.4574   -5.6097   -5.8908 N.pl3     1 <0>        -0.6215
     21 C17        -4.4405   -4.6209   -5.7478 C.ar      1 <0>         0.1642
     22 C18        -4.6294   -3.6739   -4.7482 C.ar      1 <0>        -0.1461
     23 C19        -5.6876   -2.7886   -4.8221 C.ar      1 <0>        -0.0708
     24 C20        -6.5630   -2.8410   -5.8908 C.ar      1 <0>        -0.1883
     25 C21        -6.3834   -3.7788   -6.8892 C.ar      1 <0>        -0.0859
     26 C22        -5.3216   -4.6733   -6.8238 C.ar      1 <0>         0.1242
     27 N4         -4.9393   -5.6979   -7.7007 N.pl3     1 <0>        -0.7439
     28 C23        -3.7361   -6.3257   -7.1415 C.3       1 <0>         0.3875
     29 H1         -3.9247   -7.3797   -6.9375 H         1 <0>         0.0748
     30 C24        -2.5603   -6.1761   -8.1089 C.3       1 <0>         0.0552
     31 H2         -2.3336   -5.1200   -8.2547 H         1 <0>         0.0858
     32 C25        -2.9106   -6.8284   -9.4636 C.3       1 <0>        -0.1497
     33 C26        -1.5679   -7.4986   -9.8636 C.3       1 <0>        -0.1552
     34 C27        -1.0206   -7.9128   -8.4745 C.3       1 <0>         0.0479
     35 O2         -1.4112   -6.8520   -7.5852 O.3       1 <0>        -0.3740
     36 C28        -7.7159   -1.8735   -5.9665 C.3       1 <0>         0.5126
     37 F1         -7.6899   -1.0288   -4.8516 F         1 <0>        -0.1792
     38 F2         -7.6074   -1.1091   -7.1332 F         1 <0>        -0.1786
     39 F3         -8.9208   -2.5842   -5.9850 F         1 <0>        -0.1775
     40 H3         -0.9665    1.8612    0.0259 H         1 <0>         0.1578
     41 H4          1.0933    3.1789    0.0083 H         1 <0>         0.1604
     42 H5          3.2717    2.1606   -0.0175 H         1 <0>         0.1598
     43 H6          3.4952   -2.5561   -0.9413 H         1 <0>         0.1726
     44 H7          3.5129   -2.5667    0.8465 H         1 <0>         0.1745
     45 H8         -0.9210   -0.5647    0.0081 H         1 <0>         0.1609
     46 H9          1.1268   -3.9987    0.5563 H         1 <0>         0.1201
     47 H10        -0.2596   -2.8905    0.4214 H         1 <0>         0.1177
     48 H11         0.0203   -2.8403   -2.0419 H         1 <0>         0.1053
     49 H12         1.4067   -3.9484   -1.9070 H         1 <0>         0.1044
     50 H13         0.2603   -4.0010   -3.7290 H         1 <0>         0.0854
     51 H14         0.3393   -5.6712   -4.3467 H         1 <0>         0.0808
     52 H15        -2.0761   -3.8050   -4.4360 H         1 <0>         0.0732
     53 H16        -1.0993   -4.3456   -5.8230 H         1 <0>         0.0858
     54 H17        -1.7504   -6.7001   -5.3477 H         1 <0>         0.1084
     55 H18        -3.4968   -5.4134   -3.1998 H         1 <0>         0.0755
     56 H19        -3.5544   -7.1250   -3.6870 H         1 <0>         0.0841
     57 H20        -1.2223   -7.4483   -2.9834 H         1 <0>         0.0761
     58 H21        -2.1403   -6.7329   -1.6333 H         1 <0>         0.1010
     59 H22        -3.9478   -3.6302   -3.9116 H         1 <0>         0.1267
     60 H23        -5.8313   -2.0543   -4.0432 H         1 <0>         0.1368
     61 H24        -7.0695   -3.8170   -7.7224 H         1 <0>         0.1312
     62 H25        -5.3852   -5.9441   -8.5263 H         1 <0>         0.4288
     63 H26        -3.6959   -7.5747   -9.3433 H         1 <0>         0.0794
     64 H27        -3.2001   -6.0733  -10.1945 H         1 <0>         0.0867
     65 H28        -1.7370   -8.3708  -10.4952 H         1 <0>         0.0877
     66 H29        -0.9029   -6.7858  -10.3513 H         1 <0>         0.0804
     67 H30        -1.4661   -8.8559   -8.1582 H         1 <0>         0.0634
     68 H31         0.0656   -7.9984   -8.5060 H         1 <0>         0.0888
     69 H32         4.5087   -0.3528   -0.0446 H         1 <0>         0.4552
@<TRIPOS>BOND
     1    1    9 ar
     2    1    2 ar
     3    1   40 1
     4    2    3 ar
     5    2   41 1
     6    3    4 ar
     7    3   42 1
     8    4    8 ar
     9    4    5 2
    10    5    6 1
    11    5   69 1
    12    6    7 1
    13    6   43 1
    14    6   44 1
    15    7    8 2
    16    7   10 1
    17    8    9 ar
    18    9   45 1
    19   10   11 1
    20   10   46 1
    21   10   47 1
    22   11   12 1
    23   11   48 1
    24   11   49 1
    25   12   13 2
    26   12   14 am
    27   14   19 1
    28   14   15 1
    29   15   16 1
    30   15   50 1
    31   15   51 1
    32   16   17 1
    33   16   52 1
    34   16   53 1
    35   17   18 1
    36   17   20 1
    37   17   54 1
    38   18   19 1
    39   18   55 1
    40   18   56 1
    41   19   57 1
    42   19   58 1
    43   20   28 1
    44   20   21 1
    45   21   26 ar
    46   21   22 ar
    47   22   23 ar
    48   22   59 1
    49   23   24 ar
    50   23   60 1
    51   24   25 ar
    52   24   36 1
    53   25   26 ar
    54   25   61 1
    55   26   27 1
    56   27   28 1
    57   27   62 1
    58   28   29 1
    59   28   30 1
    60   30   31 1
    61   30   35 1
    62   30   32 1
    63   32   33 1
    64   32   63 1
    65   32   64 1
    66   33   34 1
    67   33   65 1
    68   33   66 1
    69   34   35 1
    70   34   67 1
    71   34   68 1
    72   36   37 1
    73   36   38 1
    74   36   39 1
@<TRIPOS>MOLECULE
ZINC20224308
   29    29     0     0     0
SMALL
USER_CHARGES
N-(4-aminobutyl)-5-bromo-thiophene-2-sulfonamide
@<TRIPOS>ATOM
      1 C1          1.2205   -0.6573   -0.0131 C.2       1 <0>        -0.0004
      2 C2          0.0021   -0.0041    0.0020 C.2       1 <0>        -0.1483
      3 C3         -0.0163    1.3521    0.0095 C.2       1 <0>        -0.1388
      4 S1          1.7251    1.7450   -0.0050 S.3       1 <0>         0.2171
      5 C4          2.3598    0.0765   -0.0201 C.2       1 <0>        -0.7663
      6 S2          4.0336   -0.4737   -0.0398 S.o2      1 <0>         2.7259
      7 O1          4.8137    0.5794    0.5095 O.2       1 <0>        -0.9407
      8 O2          4.0360   -1.7868    0.5033 O.2       1 <0>        -0.9381
      9 N1          4.4831   -0.6172   -1.6272 N.pl3     1 <0>        -1.1199
     10 C5          4.5528    0.5725   -2.4792 C.3       1 <0>         0.1115
     11 C6          5.3328    0.2423   -3.7534 C.3       1 <0>        -0.1248
     12 C7          5.4057    1.4848   -4.6432 C.3       1 <0>        -0.1540
     13 C8          6.1857    1.1546   -5.9173 C.3       1 <0>        -0.0025
     14 N2          6.2556    2.3475   -6.7717 N.4       1 <0>        -0.6884
     15 Br1        -1.5012    2.5229    0.0233 Br        1 <0>         0.0661
     16 H1          1.2636   -1.7365   -0.0190 H         1 <0>         0.1584
     17 H2         -0.9208   -0.5650    0.0082 H         1 <0>         0.1567
     18 H3          4.5669   -1.6191   -2.0736 H         1 <0>         0.4474
     19 H4          3.5347    0.8931   -2.7452 H         1 <0>         0.0645
     20 H5          5.0624    1.3826   -1.9369 H         1 <0>         0.0890
     21 H6          6.3508   -0.0784   -3.4874 H         1 <0>         0.0876
     22 H7          4.8232   -0.5677   -4.2958 H         1 <0>         0.0829
     23 H8          4.3877    1.8055   -4.9092 H         1 <0>         0.0900
     24 H9          5.9153    2.2948   -4.1008 H         1 <0>         0.0922
     25 H10         7.2037    0.8340   -5.6512 H         1 <0>         0.1300
     26 H11         5.6762    0.3445   -6.4596 H         1 <0>         0.1288
     27 H12         6.8164    2.1100   -7.6877 H         1 <0>         0.4608
     28 H13         6.7652    3.1576   -6.2294 H         1 <0>         0.4571
     29 H14         5.2375    2.6681   -7.0377 H         1 <0>         0.4562
@<TRIPOS>BOND
     1    1    5 2
     2    1    2 1
     3    1   16 1
     4    2    3 2
     5    2   17 1
     6    3    4 1
     7    3   15 1
     8    4    5 1
     9    5    6 1
    10    6    7 2
    11    6    8 2
    12    6    9 1
    13    9   10 1
    14    9   18 1
    15   10   11 1
    16   10   19 1
    17   10   20 1
    18   11   12 1
    19   11   21 1
    20   11   22 1
    21   12   13 1
    22   12   23 1
    23   12   24 1
    24   13   14 1
    25   13   25 1
    26   13   26 1
    27   14   27 1
    28   14   28 1
    29   14   29 1
@<TRIPOS>MOLECULE
ZINC38050249
   42    43     0     0     0
SMALL
USER_CHARGES

@<TRIPOS>ATOM
      1 C1         -0.0167    1.3781    0.0096 C.ar      1 <0>        -0.1143
      2 C2          1.1709    2.0855    0.0021 C.ar      1 <0>        -0.1152
      3 C3          2.3773    1.4107   -0.0130 C.ar      1 <0>        -0.1170
      4 C4          2.3960    0.0285   -0.0201 C.ar      1 <0>        -0.0886
      5 C5          1.2084   -0.6789   -0.0117 C.ar      1 <0>        -0.1167
      6 C6          0.0021   -0.0041    0.0020 C.ar      1 <0>        -0.1149
      7 C7          3.7112   -0.7071   -0.0376 C.3       1 <0>        -0.0714
      8 C8          4.1714   -0.9633    1.3989 C.3       1 <0>        -0.6302
      9 S1          5.7544   -1.8488    1.3779 S.o2      1 <0>         2.5969
     10 O1          5.5735   -3.1627    0.8679 O.2       1 <0>        -0.9289
     11 O2          6.7790   -1.0077    0.8660 O.2       1 <0>        -0.9313
     12 N1          6.1426   -2.0645    2.9733 N.pl3     1 <0>        -1.1359
     13 C9          5.3022   -2.9112    3.8236 C.3       1 <0>         0.1349
     14 H1          4.2919   -2.9465    3.4159 H         1 <0>         0.1095
     15 C10         5.8837   -4.3257    3.8685 C.3       1 <0>        -0.1382
     16 C11         5.0060   -5.2099    4.7566 C.3       1 <0>        -0.1307
     17 C12         4.9649   -4.6302    6.1719 C.3       1 <0>        -0.1212
     18 C13         4.3834   -3.2157    6.1270 C.3       1 <0>        -0.1401
     19 C14         5.2611   -2.3315    5.2389 C.3       1 <0>         0.0195
     20 H2          6.2714   -2.2962    5.6465 H         1 <0>         0.1539
     21 N2          4.7028   -0.9734    5.1957 N.4       1 <0>        -0.6400
     22 H3         -0.9591    1.9053    0.0259 H         1 <0>         0.1267
     23 H4          1.1563    3.1654    0.0076 H         1 <0>         0.1268
     24 H5          3.3051    1.9634   -0.0196 H         1 <0>         0.1239
     25 H6          1.2231   -1.7588   -0.0176 H         1 <0>         0.1240
     26 H7         -0.9258   -0.5567    0.0082 H         1 <0>         0.1269
     27 H8          3.5884   -1.6586   -0.5549 H         1 <0>         0.0945
     28 H9          4.4573   -0.1052   -0.5563 H         1 <0>         0.0943
     29 H10         4.2941   -0.0118    1.9163 H         1 <0>         0.1328
     30 H11         3.4252   -1.5652    1.9176 H         1 <0>         0.1313
     31 H12         6.9264   -1.6303    3.3447 H         1 <0>         0.4236
     32 H13         5.9129   -4.7387    2.8602 H         1 <0>         0.1036
     33 H14         6.8940   -4.2904    4.2762 H         1 <0>         0.0841
     34 H15         3.9957   -5.2452    4.3489 H         1 <0>         0.0744
     35 H16         5.4203   -6.2176    4.7886 H         1 <0>         0.0874
     36 H17         4.3396   -5.2602    6.8046 H         1 <0>         0.0903
     37 H18         5.9752   -4.5949    6.5796 H         1 <0>         0.0784
     38 H19         3.3731   -3.2510    5.7193 H         1 <0>         0.0921
     39 H20         4.3541   -2.8027    7.1353 H         1 <0>         0.0969
     40 H21         3.7675   -1.0061    4.8184 H         1 <0>         0.4328
     41 H22         4.6757   -0.5911    6.1291 H         1 <0>         0.4417
     42 H23         5.2816   -0.3902    4.6101 H         1 <0>         0.4334
@<TRIPOS>BOND
     1    1    6 ar
     2    1    2 ar
     3    1   22 1
     4    2    3 ar
     5    2   23 1
     6    3    4 ar
     7    3   24 1
     8    4    5 ar
     9    4    7 1
    10    5    6 ar
    11    5   25 1
    12    6   26 1
    13    7    8 1
    14    7   27 1
    15    7   28 1
    16    8    9 1
    17    8   29 1
    18    8   30 1
    19    9   10 2
    20    9   11 2
    21    9   12 1
    22   12   13 1
    23   12   31 1
    24   13   14 1
    25   13   19 1
    26   13   15 1
    27   15   16 1
    28   15   32 1
    29   15   33 1
    30   16   17 1
    31   16   34 1
    32   16   35 1
    33   17   18 1
    34   17   36 1
    35   17   37 1
    36   18   19 1
    37   18   38 1
    38   18   39 1
    39   19   20 1
    40   19   21 1
    41   21   40 1
    42   21   41 1
    43   21   42 1
@<TRIPOS>MOLECULE
ZINC45147080
   35    35     0     0     0
SMALL
USER_CHARGES

@<TRIPOS>ATOM
      1 C1          0.1892    1.4853    0.0261 C.3       1 <0>        -0.1800
      2 C2          0.2161   -0.0405   -0.0844 C.3       1 <0>         0.0429
      3 H1         -0.7698   -0.4010   -0.3777 H         1 <0>         0.1650
      4 C3          1.2300   -0.4512   -1.1209 C.2       1 <0>         0.2379
      5 S1          2.6550   -1.0161   -0.6656 S.2       1 <0>        -0.3870
      6 N1          0.9357   -0.3425   -2.4316 N.pl3     1 <0>        -0.7398
      7 N2          0.5825   -0.6192    1.2152 N.4       1 <0>        -0.3593
      8 C4         -0.3260   -0.1102    2.2514 C.3       1 <0>        -0.0638
      9 C5          0.4765   -2.0827    1.1469 C.3       1 <0>        -0.0430
     10 C6          1.0234   -2.6857    2.4151 C.2       1 <0>         0.5156
     11 O1          1.4587   -1.9670    3.2897 O.2       1 <0>        -0.5022
     12 N3          1.0289   -4.0237    2.5773 N.am      1 <0>        -0.6429
     13 C7          1.6363   -4.5895    3.7042 C.ar      1 <0>         0.1551
     14 C8          2.6324   -3.8966    4.3795 C.ar      1 <0>        -0.1199
     15 C9          3.2296   -4.4573    5.4914 C.ar      1 <0>        -0.0804
     16 C10         2.8371   -5.7079    5.9327 C.ar      1 <0>        -0.1149
     17 C11         1.8460   -6.4011    5.2629 C.ar      1 <0>        -0.0670
     18 C12         1.2400   -5.8431    4.1531 C.ar      1 <0>        -0.1174
     19 Br1        -0.1209   -6.7884    3.2418 Br        1 <0>        -0.0363
     20 H2          1.1751    1.8458    0.3194 H         1 <0>         0.0963
     21 H3         -0.0826    1.9147   -0.9382 H         1 <0>         0.1107
     22 H4         -0.5441    1.7824    0.7758 H         1 <0>         0.1079
     23 H5          0.0713    0.0002   -2.7078 H         1 <0>         0.4104
     24 H6          1.5883   -0.6068   -3.0988 H         1 <0>         0.4387
     25 H7         -0.2473    0.9757    2.3021 H         1 <0>         0.1341
     26 H8         -1.3505   -0.3892    2.0053 H         1 <0>         0.1236
     27 H9         -0.0541   -0.5396    3.2157 H         1 <0>         0.1455
     28 H10        -0.5696   -2.3663    1.0315 H         1 <0>         0.1622
     29 H11         1.0484   -2.4490    0.2943 H         1 <0>         0.1665
     30 H12         0.6119   -4.5945    1.9131 H         1 <0>         0.4203
     31 H13         2.9401   -2.9202    4.0352 H         1 <0>         0.1551
     32 H14         4.0043   -3.9187    6.0168 H         1 <0>         0.1400
     33 H15         3.3061   -6.1440    6.8023 H         1 <0>         0.1410
     34 H16         1.5423   -7.3778    5.6096 H         1 <0>         0.1438
     35 H17         1.5309   -0.3609    1.4430 H         1 <0>         0.4413
@<TRIPOS>BOND
     1    1    2 1
     2    1   20 1
     3    1   21 1
     4    1   22 1
     5    2    3 1
     6    2    4 1
     7    2    7 1
     8    4    5 2
     9    4    6 1
    10    6   23 1
    11    6   24 1
    12    7    8 1
    13    7    9 1
    14    7   35 1
    15    8   25 1
    16    8   26 1
    17    8   27 1
    18    9   10 1
    19    9   28 1
    20    9   29 1
    21   10   11 2
    22   10   12 am
    23   12   13 1
    24   12   30 1
    25   13   18 ar
    26   13   14 ar
    27   14   15 ar
    28   14   31 1
    29   15   16 ar
    30   15   32 1
    31   16   17 ar
    32   16   33 1
    33   17   18 ar
    34   17   34 1
    35   18   19 1
@<TRIPOS>MOLECULE
ZINC55139503
   51    52     0     0     0
SMALL
USER_CHARGES

@<TRIPOS>ATOM
      1 C1          3.4915   -0.8145    0.7939 C.3       1 <0>        -0.1264
      2 C2          2.2628   -0.8608    1.7359 C.3       1 <0>        -0.1248
      3 C3          1.1079   -1.2324    0.7731 C.3       1 <0>        -0.1445
      4 C4          1.4309   -0.4587   -0.5218 C.3       1 <0>         0.1326
      5 C5          2.9465   -0.1929   -0.5085 C.3       1 <0>        -0.1403
      6 N1          1.0731   -1.2655   -1.6911 N.am      1 <0>        -0.6072
      7 C6          1.7893   -2.5134   -1.9669 C.3       1 <0>         0.1155
      8 C7          0.9911   -3.6935   -1.4091 C.3       1 <0>         0.0536
      9 O1         -0.2562   -3.7936   -2.0992 O.3       1 <0>        -0.5505
     10 C8          0.0851   -0.8597   -2.5130 C.2       1 <0>         0.5095
     11 O2         -0.2718   -1.5700   -3.4290 O.2       1 <0>        -0.5080
     12 C9         -0.5764    0.4765   -2.2938 C.3       1 <0>        -0.1413
     13 C10        -1.7343    0.6403   -3.2803 C.3       1 <0>        -0.1010
     14 C11        -2.4058    1.9970   -3.0578 C.3       1 <0>        -0.0937
     15 C12        -3.0493    2.0260   -1.6700 C.3       1 <0>        -0.1172
     16 C13        -3.7208    3.3826   -1.4474 C.3       1 <0>        -0.1415
     17 C14        -4.7969    3.6000   -2.5131 C.3       1 <0>         0.0246
     18 C15        -4.1534    3.5709   -3.9010 C.3       1 <0>        -0.1413
     19 C16        -3.4819    2.2143   -4.1235 C.3       1 <0>        -0.1142
     20 N2         -5.4416    4.9025   -2.2995 N.4       1 <0>        -0.6374
     21 H1          4.2741   -0.1856    1.2184 H         1 <0>         0.0711
     22 H2          3.8679   -1.8204    0.6082 H         1 <0>         0.0676
     23 H3          2.3906   -1.6275    2.5000 H         1 <0>         0.0713
     24 H4          2.0879    0.1142    2.1908 H         1 <0>         0.0696
     25 H5          1.0993   -2.3059    0.5840 H         1 <0>         0.0803
     26 H6          0.1509   -0.9086    1.1823 H         1 <0>         0.0677
     27 H7          0.8864    0.4854   -0.5383 H         1 <0>         0.0920
     28 H8          3.1375    0.8802   -0.5186 H         1 <0>         0.0735
     29 H9          3.4158   -0.6643   -1.3721 H         1 <0>         0.0748
     30 H10         1.9098   -2.6328   -3.0436 H         1 <0>         0.0858
     31 H11         2.7703   -2.4817   -1.4928 H         1 <0>         0.0939
     32 H12         1.5582   -4.6139   -1.5483 H         1 <0>         0.0523
     33 H13         0.8068   -3.5375   -0.3462 H         1 <0>         0.0492
     34 H14        -0.8157   -4.5220   -1.7967 H         1 <0>         0.3719
     35 H15        -0.9575    0.5303   -1.2740 H         1 <0>         0.0880
     36 H16         0.1513    1.2724   -2.4522 H         1 <0>         0.0909
     37 H17        -1.3532    0.5865   -4.3001 H         1 <0>         0.0774
     38 H18        -2.4620   -0.1556   -3.1219 H         1 <0>         0.0739
     39 H19        -1.6592    2.7879   -3.1287 H         1 <0>         0.0784
     40 H20        -3.7959    1.2350   -1.5991 H         1 <0>         0.0770
     41 H21        -2.2827    1.8711   -0.9107 H         1 <0>         0.0858
     42 H22        -4.1792    3.4033   -0.4587 H         1 <0>         0.0877
     43 H23        -2.9742    4.1736   -1.5184 H         1 <0>         0.0874
     44 H24        -5.5435    2.8090   -2.4422 H         1 <0>         0.1416
     45 H25        -4.9200    3.7258   -4.6602 H         1 <0>         0.0884
     46 H26        -3.4068    4.3619   -3.9719 H         1 <0>         0.0874
     47 H27        -3.0235    2.1937   -5.1122 H         1 <0>         0.0872
     48 H28        -4.2285    1.4234   -4.0526 H         1 <0>         0.0770
     49 H29        -4.7505    5.6347   -2.3651 H         1 <0>         0.4327
     50 H30        -6.1512    5.0458   -3.0023 H         1 <0>         0.4361
     51 H31        -5.8659    4.9216   -1.3842 H         1 <0>         0.4357
@<TRIPOS>BOND
     1    1    5 1
     2    1    2 1
     3    1   21 1
     4    1   22 1
     5    2    3 1
     6    2   23 1
     7    2   24 1
     8    3    4 1
     9    3   25 1
    10    3   26 1
    11    4    5 1
    12    4    6 1
    13    4   27 1
    14    5   28 1
    15    5   29 1
    16    6    7 1
    17    6   10 am
    18    7    8 1
    19    7   30 1
    20    7   31 1
    21    8    9 1
    22    8   32 1
    23    8   33 1
    24    9   34 1
    25   10   11 2
    26   10   12 1
    27   12   13 1
    28   12   35 1
    29   12   36 1
    30   13   14 1
    31   13   37 1
    32   13   38 1
    33   14   19 1
    34   14   15 1
    35   14   39 1
    36   15   16 1
    37   15   40 1
    38   15   41 1
    39   16   17 1
    40   16   42 1
    41   16   43 1
    42   17   18 1
    43   17   20 1
    44   17   44 1
    45   18   19 1
    46   18   45 1
    47   18   46 1
    48   19   47 1
    49   19   48 1
    50   20   49 1
    51   20   50 1
    52   20   51 1
@<TRIPOS>MOLECULE
ZINC63131378
   37    37     0     0     0
SMALL
USER_CHARGES

@<TRIPOS>ATOM
      1 C1         -0.1568    1.5323   -0.0408 C.3       1 <0>        -0.1598
      2 C2         -0.2002    0.0041   -0.1011 C.3       1 <0>        -0.1445
      3 C3          0.5819   -0.4804   -1.3236 C.3       1 <0>        -0.0889
      4 H1          0.2093    0.0224   -2.2160 H         1 <0>         0.1387
      5 C4          0.4025   -1.9921   -1.4775 C.3       1 <0>        -0.1475
      6 C5          1.0060   -2.4391   -2.7841 C.cat     1 <0>         0.5479
      7 N1          0.2668   -2.4628   -3.8796 N.pl3     1 <0>        -0.7532
      8 N2          2.2743   -2.8074   -2.8345 N.pl3     1 <0>        -0.7424
      9 S1          2.3420   -0.0995   -1.1053 S.3       1 <0>        -0.0760
     10 C6          2.7552   -0.8588    0.4300 C.ar      1 <0>        -0.0549
     11 C7          1.8217   -1.6491    1.0898 C.ar      1 <0>        -0.1849
     12 C8          2.1491   -2.2425    2.2929 C.ar      1 <0>         0.0007
     13 C9          3.4042   -2.0511    2.8414 C.ar      1 <0>        -0.6557
     14 C10         4.3356   -1.2648    2.1879 C.ar      1 <0>         0.0045
     15 C11         4.0174   -0.6733    0.9814 C.ar      1 <0>        -0.1119
     16 S2          3.8174   -2.8103    4.3768 S.o2      1 <0>         2.4957
     17 O1          4.8258   -1.9779    4.9331 O.2       1 <0>        -0.9274
     18 O2          2.5736   -2.9845    5.0415 O.2       1 <0>        -0.9301
     19 C12         4.5163   -4.4226    3.9265 C.3       1 <0>        -0.6488
     20 H2          0.8692    1.8604    0.1256 H         1 <0>         0.0694
     21 H3         -0.5217    1.9435   -0.9820 H         1 <0>         0.0615
     22 H4         -0.7872    1.8816    0.7770 H         1 <0>         0.0712
     23 H5          0.2474   -0.4081    0.8033 H         1 <0>         0.0942
     24 H6         -1.2358   -0.3273   -0.1776 H         1 <0>         0.0905
     25 H7          0.9008   -2.5028   -0.6536 H         1 <0>         0.1408
     26 H8         -0.6600   -2.2349   -1.4661 H         1 <0>         0.1463
     27 H9         -0.6640   -2.1925   -3.8426 H         1 <0>         0.4485
     28 H10         2.8168   -2.7900   -2.0306 H         1 <0>         0.4472
     29 H11         2.6628   -3.0951   -3.6755 H         1 <0>         0.4320
     30 H12         0.8413   -1.7987    0.6623 H         1 <0>         0.1508
     31 H13         1.4240   -2.8566    2.8063 H         1 <0>         0.1521
     32 H14         5.3146   -1.1173    2.6193 H         1 <0>         0.1551
     33 H15         4.7470   -0.0637    0.4690 H         1 <0>         0.1439
     34 H16         5.3960   -4.2750    3.3000 H         1 <0>         0.1325
     35 H17         4.8004   -4.9608    4.8307 H         1 <0>         0.1388
     36 H18         3.7725   -5.0006    3.3781 H         1 <0>         0.1307
     37 H19         0.6552   -2.7505   -4.7206 H         1 <0>         0.4327
@<TRIPOS>BOND
     1    1    2 1
     2    1   20 1
     3    1   21 1
     4    1   22 1
     5    2    3 1
     6    2   23 1
     7    2   24 1
     8    3    4 1
     9    3    5 1
    10    3    9 1
    11    5    6 1
    12    5   25 1
    13    5   26 1
    14    6    7 2
    15    6    8 1
    16    7   27 1
    17    7   37 1
    18    8   28 1
    19    8   29 1
    20    9   10 1
    21   10   15 ar
    22   10   11 ar
    23   11   12 ar
    24   11   30 1
    25   12   13 ar
    26   12   31 1
    27   13   14 ar
    28   13   16 1
    29   14   15 ar
    30   14   32 1
    31   15   33 1
    32   16   17 2
    33   16   18 2
    34   16   19 1
    35   19   34 1
    36   19   35 1
    37   19   36 1
@<TRIPOS>MOLECULE
ZINC02137379
   51    54     0     0     0
SMALL
USER_CHARGES
3-(3-chlorophenyl)-5-[(1R)-6,7-dimethoxy-1,2,3,4-tetrahydroisoquinolin-1-yl]-6-hydroxy-1H-pyrimidine-2,4-dione
@<TRIPOS>ATOM
      1 C1          0.6489    2.8733    2.9612 C.3       1 <0>         0.0213
      2 O1         -0.4421    2.9744    3.8786 O.3       1 <0>        -0.2972
      3 C2         -1.6170    2.3994    3.5065 C.ar      1 <0>         0.1326
      4 C3         -1.7193    1.7528    2.2875 C.ar      1 <0>        -0.1667
      5 C4         -2.9156    1.1661    1.9028 C.ar      1 <0>        -0.0719
      6 C5         -4.0120    1.2263    2.7371 C.ar      1 <0>        -0.1136
      7 C6         -3.9135    1.8717    3.9612 C.ar      1 <0>        -0.1447
      8 C7         -2.7207    2.4535    4.3523 C.ar      1 <0>         0.1128
      9 O2         -2.6288    3.0801    5.5558 O.3       1 <0>        -0.2956
     10 C8         -3.8027    3.0956    6.3705 C.3       1 <0>         0.0251
     11 C9         -5.3330    0.6089    2.3586 C.3       1 <0>         0.1970
     12 H1         -6.0172    1.3934    2.0353 H         1 <0>         0.1562
     13 C10        -4.4319    0.2652    0.1499 C.3       1 <0>         0.0028
     14 C11        -2.9754    0.4696    0.5673 C.3       1 <0>        -0.1036
     15 C12        -5.9142   -0.0946    3.5580 C.2       1 <0>        -0.3891
     16 C13        -7.0646    0.3570    4.1339 C.2       1 <0>         0.4779
     17 N1         -7.5761   -0.2991    5.2248 N.am      1 <0>        -0.6529
     18 H2         -8.3943    0.0183    5.6381 H         1 <0>         0.4471
     19 C14        -6.9506   -1.3805    5.7250 C.2       1 <0>         0.7033
     20 O3         -7.4188   -1.9494    6.6921 O.2       1 <0>        -0.4793
     21 N2         -5.8142   -1.8411    5.1709 N.am      1 <0>        -0.5035
     22 C15        -5.2809   -1.2291    4.0950 C.2       1 <0>         0.5773
     23 O4         -4.2543   -1.6538    3.5936 O.2       1 <0>        -0.4979
     24 C16        -5.1839   -2.9693    5.7126 C.ar      1 <0>         0.1223
     25 C17        -5.5135   -4.2378    5.2536 C.ar      1 <0>        -0.0872
     26 C18        -4.8911   -5.3483    5.7890 C.ar      1 <0>        -0.0925
     27 C19        -3.9401   -5.1987    6.7816 C.ar      1 <0>        -0.0840
     28 C20        -3.6088   -3.9362    7.2412 C.ar      1 <0>        -0.0258
     29 C21        -4.2250   -2.8207    6.7050 C.ar      1 <0>        -0.0817
     30 Cl1        -2.4136   -3.7525    8.4867 Cl        1 <0>        -0.0447
     31 O5         -7.6950    1.4414    3.6350 O.3       1 <0>        -0.4296
     32 H3          0.8797    1.8226    2.7855 H         1 <0>         0.0601
     33 H4          1.5229    3.3723    3.3797 H         1 <0>         0.1100
     34 H5          0.3761    3.3480    2.0186 H         1 <0>         0.0604
     35 H6         -0.8626    1.7050    1.6316 H         1 <0>         0.1468
     36 H7         -4.7721    1.9165    4.6149 H         1 <0>         0.1339
     37 H8         -3.5930    3.6253    7.2998 H         1 <0>         0.1102
     38 H9         -4.6080    3.6013    5.8378 H         1 <0>         0.0566
     39 H10        -4.1025    2.0720    6.5953 H         1 <0>         0.0507
     40 H11        -4.8834    1.2284   -0.0878 H         1 <0>         0.1340
     41 H12        -4.4747   -0.3849   -0.7240 H         1 <0>         0.1411
     42 H13        -2.4665    1.0773   -0.1809 H         1 <0>         0.1221
     43 H14        -2.4810   -0.4990    0.6418 H         1 <0>         0.1051
     44 H15        -6.2564   -4.3559    4.4786 H         1 <0>         0.1329
     45 H16        -5.1472   -6.3348    5.4317 H         1 <0>         0.1485
     46 H17        -3.4548   -6.0687    7.1987 H         1 <0>         0.1476
     47 H18        -3.9634   -1.8351    7.0609 H         1 <0>         0.1359
     48 H19        -8.5009    1.6821    4.1122 H         1 <0>         0.4329
     49 N3         -5.1572   -0.3623    1.2701 N.4       1 <0>        -0.5146
     50 H20        -6.0780   -0.6791    0.9446 H         1 <0>         0.4324
     51 H21        -4.6207   -1.1669    1.6150 H         1 <0>         0.4392
@<TRIPOS>BOND
     1    1    2 1
     2    1   32 1
     3    1   33 1
     4    1   34 1
     5    2    3 1
     6    3    8 ar
     7    3    4 ar
     8    4    5 ar
     9    4   35 1
    10    5   14 1
    11    5    6 ar
    12    6    7 ar
    13    6   11 1
    14    7    8 ar
    15    7   36 1
    16    8    9 1
    17    9   10 1
    18   10   37 1
    19   10   38 1
    20   10   39 1
    21   11   12 1
    22   11   15 1
    23   11   49 1
    24   13   14 1
    25   13   40 1
    26   13   41 1
    27   13   49 1
    28   14   42 1
    29   14   43 1
    30   15   22 1
    31   15   16 2
    32   16   17 1
    33   16   31 1
    34   17   18 1
    35   17   19 am
    36   19   20 2
    37   19   21 am
    38   21   22 am
    39   21   24 1
    40   22   23 2
    41   24   29 ar
    42   24   25 ar
    43   25   26 ar
    44   25   44 1
    45   26   27 ar
    46   26   45 1
    47   27   28 ar
    48   27   46 1
    49   28   29 ar
    50   28   30 1
    51   29   47 1
    52   31   48 1
    53   49   50 1
    54   49   51 1
@<TRIPOS>MOLECULE
ZINC33688585
   46    50     0     0     0
SMALL
USER_CHARGES
bromo-imino-(p-tolyl)BLAHamine
@<TRIPOS>ATOM
      1 C1          1.0713    7.3069    5.3372 C.3       1 <0>        -0.1281
      2 C2          0.7579    6.8042    3.9515 C.ar      1 <0>        -0.0645
      3 C3          1.5623    7.1652    2.8869 C.ar      1 <0>        -0.1080
      4 C4          1.2753    6.7034    1.6160 C.ar      1 <0>        -0.1193
      5 C5          0.1835    5.8810    1.4096 C.ar      1 <0>        -0.1097
      6 C6         -0.6243    5.5247    2.4733 C.ar      1 <0>        -0.0943
      7 C7         -0.3339    5.9819    3.7452 C.ar      1 <0>        -0.1088
      8 C8         -0.1297    5.3779    0.0240 C.3       1 <0>         0.0626
      9 H1          0.6126    5.7555   -0.6946 H         1 <0>         0.1086
     10 C9         -0.0895    3.8734    0.0198 C.ar      1 <0>        -0.1231
     11 C10         1.1529    3.2145    0.0055 C.ar      1 <0>        -0.0059
     12 C11         2.3583    3.9383   -0.0024 C.ar      1 <0>        -0.1079
     13 C12         3.5442    3.2711   -0.0137 C.ar      1 <0>        -0.0727
     14 C13         3.5838    1.8771   -0.0184 C.ar      1 <0>        -0.0851
     15 C14         2.4362    1.1435   -0.0119 C.ar      1 <0>        -0.0583
     16 C15         1.1933    1.7983    0.0003 C.ar      1 <0>        -0.0557
     17 C16        -0.0126    1.0758    0.0080 C.ar      1 <0>        -0.0480
     18 C17        -1.1960    1.7418    0.0172 C.ar      1 <0>        -0.1131
     19 C18        -1.2423    3.1439    0.0302 C.ar      1 <0>         0.1190
     20 O1         -2.4521    3.7565    0.0476 O.3       1 <0>        -0.2027
     21 C19        -2.5730    5.0398   -0.3521 C.2       1 <0>         0.4297
     22 C20        -1.4907    5.8668   -0.3820 C.2       1 <0>        -0.2730
     23 C21        -1.6634    7.2056   -0.8029 C.cat     1 <0>         0.5150
     24 N1         -0.6435    8.0378   -0.8454 N.pl3     1 <0>        -0.7885
     25 N2         -2.9306    7.6175   -1.1679 N.pl3     1 <0>        -0.2527
     26 C22        -3.9585    6.7337   -1.1134 C.2       1 <0>         0.4113
     27 N3         -3.7807    5.5044   -0.7232 N.2       1 <0>        -0.4863
     28 N4         -3.1466    8.9021   -1.5791 N.3       1 <0>        -0.7693
     29 Br1         5.2551    0.9926   -0.0340 Br        1 <0>        -0.0290
     30 H2          1.9689    7.9419    5.3026 H         1 <0>         0.0716
     31 H3          1.2525    6.4519    6.0051 H         1 <0>         0.0782
     32 H4          0.2213    7.8938    5.7153 H         1 <0>         0.0757
     33 H5          2.4153    7.8077    3.0481 H         1 <0>         0.1317
     34 H6          1.9038    6.9853    0.7842 H         1 <0>         0.1236
     35 H7         -1.4798    4.8857    2.3113 H         1 <0>         0.1154
     36 H8         -0.9623    5.6996    4.5770 H         1 <0>         0.1293
     37 H9          2.3430    5.0182    0.0002 H         1 <0>         0.1342
     38 H10         4.4686    3.8295   -0.0188 H         1 <0>         0.1406
     39 H11         2.4815    0.0644   -0.0158 H         1 <0>         0.1483
     40 H12         0.0021   -0.0041    0.0020 H         1 <0>         0.1553
     41 H13        -2.1192    1.1814    0.0187 H         1 <0>         0.1518
     42 H14        -0.7944    9.0763   -1.1752 H         1 <0>         0.4499
     43 H15        -4.9479    7.0575   -1.4010 H         1 <0>         0.2504
     44 H16        -4.1578    9.2243   -1.8685 H         1 <0>         0.4774
     45 H17        -2.3094    9.6144   -1.6208 H         1 <0>         0.4501
     46 H18         0.3592    7.6944   -0.5511 H         1 <0>         0.4739
@<TRIPOS>BOND
     1    1    2 1
     2    1   30 1
     3    1   31 1
     4    1   32 1
     5    2    7 ar
     6    2    3 ar
     7    3    4 ar
     8    3   33 1
     9    4    5 ar
    10    4   34 1
    11    5    6 ar
    12    5    8 1
    13    6    7 ar
    14    6   35 1
    15    7   36 1
    16    8    9 1
    17    8   22 1
    18    8   10 1
    19   10   19 ar
    20   10   11 ar
    21   11   16 ar
    22   11   12 ar
    23   12   13 ar
    24   12   37 1
    25   13   14 ar
    26   13   38 1
    27   14   15 ar
    28   14   29 1
    29   15   16 ar
    30   15   39 1
    31   16   17 ar
    32   17   18 ar
    33   17   40 1
    34   18   19 ar
    35   18   41 1
    36   19   20 1
    37   20   21 1
    38   21   27 1
    39   21   22 2
    40   22   23 1
    41   23   24 2
    42   23   25 1
    43   24   42 1
    44   24   46 1
    45   25   26 1
    46   25   28 1
    47   26   27 2
    48   26   43 1
    49   28   44 1
    50   28   45 1
@<TRIPOS>MOLECULE
ZINC40684860
   47    51     0     0     0
SMALL
USER_CHARGES

@<TRIPOS>ATOM
      1 C1          2.4608   -1.8168    3.1315 C.ar      1 <0>        -0.1413
      2 C2          3.7453   -1.3948    2.8401 C.ar      1 <0>        -0.0819
      3 C3          4.0730   -1.0269    1.5508 C.ar      1 <0>        -0.1704
      4 C4          3.1130   -1.0818    0.5460 C.ar      1 <0>         0.1882
      5 C5          1.8267   -1.5079    0.8382 C.ar      1 <0>        -0.1207
      6 C6          1.5058   -1.8728    2.1351 C.ar      1 <0>        -0.0782
      7 C7          0.7643   -1.5902   -0.2260 C.3       1 <0>        -0.0819
      8 C8          1.1297   -0.7042   -1.4168 C.3       1 <0>        -0.1342
      9 C9          2.5598   -1.0365   -1.8621 C.3       1 <0>         0.1275
     10 N1          3.4644   -0.7002   -0.7542 N.pl3     1 <0>        -0.5843
     11 C10         4.6502   -0.0145   -0.9933 C.ar      1 <0>         0.4207
     12 C11         4.6640    1.3807   -1.0476 C.ar      1 <0>         0.1268
     13 C12         5.8817    2.0189   -1.2902 C.ar      1 <0>         0.4080
     14 N2          6.9751    1.2786   -1.4593 N.ar      1 <0>        -0.5102
     15 C13         6.9184   -0.0364   -1.4007 C.ar      1 <0>         0.3346
     16 N3          5.7908   -0.6777   -1.1685 N.ar      1 <0>        -0.4508
     17 N4          5.9513    3.4058   -1.3547 N.pl3     1 <0>        -0.6246
     18 C14         7.1464    4.0298   -1.7308 C.ar      1 <0>         0.1118
     19 C15         7.9167    3.4950   -2.7552 C.ar      1 <0>        -0.1615
     20 C16         9.0969    4.1098   -3.1271 C.ar      1 <0>        -0.0642
     21 C17         9.5154    5.2611   -2.4796 C.ar      1 <0>         0.0500
     22 C18         8.7449    5.8002   -1.4522 C.ar      1 <0>         0.0775
     23 C19         7.5592    5.1867   -1.0837 C.ar      1 <0>        -0.1050
     24 O1          9.3669    6.9208   -0.9822 O.3       1 <0>        -0.2958
     25 C20        10.7249    6.8331   -1.4526 C.3       1 <0>         0.2108
     26 O2         10.6208    6.0449   -2.6530 O.3       1 <0>        -0.2950
     27 N5          3.4857    2.1212   -0.8637 N.pl3     1 <0>        -0.8283
     28 H1          2.2050   -2.1076    4.1397 H         1 <0>         0.1287
     29 H2          4.4908   -1.3528    3.6204 H         1 <0>         0.1272
     30 H3          5.0753   -0.6959    1.3222 H         1 <0>         0.1098
     31 H4          0.5042   -2.2026    2.3684 H         1 <0>         0.1315
     32 H5          0.6705   -2.6230   -0.5615 H         1 <0>         0.0838
     33 H6         -0.1876   -1.2597    0.1896 H         1 <0>         0.0863
     34 H7          0.4384   -0.8930   -2.2381 H         1 <0>         0.0945
     35 H8          1.0729    0.3439   -1.1230 H         1 <0>         0.0683
     36 H9          2.6372   -2.0991   -2.0924 H         1 <0>         0.0831
     37 H10         2.8187   -0.4475   -2.7419 H         1 <0>         0.0832
     38 H11         7.8248   -0.6062   -1.5428 H         1 <0>         0.2491
     39 H12         5.1717    3.9411   -1.1390 H         1 <0>         0.4408
     40 H13         7.5931    2.5976   -3.2613 H         1 <0>         0.1423
     41 H14         9.6945    3.6920   -3.9238 H         1 <0>         0.1579
     42 H15         6.9582    5.6055   -0.2900 H         1 <0>         0.1530
     43 H16        11.1168    7.8249   -1.6784 H         1 <0>         0.1467
     44 H17        11.3532    6.3302   -0.7175 H         1 <0>         0.0991
     45 H18         2.6623    1.6700   -0.6200 H         1 <0>         0.4277
     46 H19         3.4948    3.0841   -0.9805 H         1 <0>         0.4101
     47 H20         7.8256    1.7134   -1.6283 H         1 <0>         0.4493
@<TRIPOS>BOND
     1    1    6 ar
     2    1    2 ar
     3    1   28 1
     4    2    3 ar
     5    2   29 1
     6    3    4 ar
     7    3   30 1
     8    4   10 1
     9    4    5 ar
    10    5    6 ar
    11    5    7 1
    12    6   31 1
    13    7    8 1
    14    7   32 1
    15    7   33 1
    16    8    9 1
    17    8   34 1
    18    8   35 1
    19    9   10 1
    20    9   36 1
    21    9   37 1
    22   10   11 1
    23   11   16 ar
    24   11   12 ar
    25   12   13 ar
    26   12   27 1
    27   13   14 ar
    28   13   17 1
    29   14   15 ar
    30   14   47 1
    31   15   16 ar
    32   15   38 1
    33   17   18 1
    34   17   39 1
    35   18   23 ar
    36   18   19 ar
    37   19   20 ar
    38   19   40 1
    39   20   21 ar
    40   20   41 1
    41   21   26 1
    42   21   22 ar
    43   22   23 ar
    44   22   24 1
    45   23   42 1
    46   24   25 1
    47   25   26 1
    48   25   43 1
    49   25   44 1
    50   27   45 1
    51   27   46 1
@<TRIPOS>MOLECULE
ZINC12506959
   51    55     0     0     0
SMALL
USER_CHARGES

@<TRIPOS>ATOM
      1 C1         -0.0157    1.3058    0.0092 C.2       1 <0>        -0.1562
      2 C2          0.0021   -0.0041    0.0020 C.2       1 <0>        -0.1696
      3 C3         -1.2926   -0.7753    0.0102 C.3       1 <0>         0.0869
      4 O1         -1.2235   -1.8324   -0.9488 O.3       1 <0>        -0.3021
      5 C4         -2.3178   -2.6293   -1.0686 C.ar      1 <0>         0.1530
      6 C5         -3.4374   -2.3950   -0.2832 C.ar      1 <0>        -0.1826
      7 C6         -4.5485   -3.2062   -0.4071 C.ar      1 <0>        -0.0649
      8 C7         -4.5456   -4.2510   -1.3130 C.ar      1 <0>        -0.1482
      9 C8         -3.4312   -4.4868   -2.0964 C.ar      1 <0>        -0.1116
     10 C9         -2.3194   -3.6748   -1.9802 C.ar      1 <0>        -0.1161
     11 C10        -3.4314   -5.6266   -3.0822 C.3       1 <0>         0.4355
     12 H1         -2.6629   -5.4617   -3.8374 H         1 <0>         0.1557
     13 N1         -4.7535   -5.7287   -3.7281 N.pl3     1 <0>        -0.7345
     14 C11        -5.7648   -6.3794   -3.0359 C.cat     1 <0>         0.7701
     15 N2         -5.4662   -7.6528   -2.5493 N.pl3     1 <0>        -0.6037
     16 C12        -4.1481   -7.8305   -2.1319 C.2       1 <0>         0.4756
     17 N3         -3.1770   -6.8896   -2.3817 N.pl3     1 <0>        -0.5171
     18 C13        -1.9947   -7.3643   -1.8556 C.ar      1 <0>         0.0992
     19 C14        -0.6953   -6.8769   -1.8022 C.ar      1 <0>        -0.1142
     20 C15         0.2896   -7.6171   -1.1775 C.ar      1 <0>         0.1164
     21 C16        -0.0099   -8.8493   -0.6034 C.ar      1 <0>         0.0759
     22 C17        -1.2943   -9.3495   -0.6526 C.ar      1 <0>        -0.0511
     23 C18        -2.3010   -8.6103   -1.2807 C.ar      1 <0>         0.0665
     24 N4         -3.6327   -8.8344   -1.4857 N.2       1 <0>        -0.4429
     25 O2          0.9776   -9.5632    0.0135 O.3       1 <0>        -0.3107
     26 C19         1.9940  -10.0916   -0.8407 C.3       1 <0>         0.0584
     27 C20         3.0691   -9.0501   -1.1080 C.3       1 <0>        -0.1919
     28 C21         2.5382   -7.8564   -1.8860 C.3       1 <0>         0.0604
     29 O3          1.5687   -7.1407   -1.1185 O.3       1 <0>        -0.3122
     30 N5         -6.9315   -5.8302   -2.8496 N.pl3     1 <0>        -0.7041
     31 H2          0.9122    1.8585    0.0033 H         1 <0>         0.1137
     32 H3         -0.9582    1.8330    0.0166 H         1 <0>         0.1010
     33 H4          0.9446   -0.5313   -0.0098 H         1 <0>         0.1239
     34 H5         -1.4592   -1.1950    1.0023 H         1 <0>         0.0771
     35 H6         -2.1152   -0.1069   -0.2443 H         1 <0>         0.0722
     36 H7         -3.4399   -1.5794    0.4247 H         1 <0>         0.1409
     37 H8         -5.4200   -3.0245    0.2042 H         1 <0>         0.1362
     38 H9         -5.4154   -4.8841   -1.4084 H         1 <0>         0.1006
     39 H10        -1.4507   -3.8566   -2.5956 H         1 <0>         0.1428
     40 H11        -4.9109   -5.3527   -4.6084 H         1 <0>         0.4601
     41 H12        -0.4556   -5.9227   -2.2477 H         1 <0>         0.1431
     42 H13        -1.5211  -10.3074   -0.2083 H         1 <0>         0.1549
     43 H14         2.4471  -10.9608   -0.3640 H         1 <0>         0.1126
     44 H15         1.5455  -10.3952   -1.7866 H         1 <0>         0.0613
     45 H16         3.4676   -8.7016   -0.1552 H         1 <0>         0.0893
     46 H17         3.8750   -9.5127   -1.6777 H         1 <0>         0.0984
     47 H18         3.3658   -7.1902   -2.1294 H         1 <0>         0.1126
     48 H19         2.0772   -8.2066   -2.8095 H         1 <0>         0.0613
     49 H20        -7.1114   -4.9433   -3.1988 H         1 <0>         0.4570
     50 H21        -6.1270   -8.3615   -2.5046 H         1 <0>         0.4689
     51 H22        -7.6202   -6.3083   -2.3618 H         1 <0>         0.4523
@<TRIPOS>BOND
     1    1    2 2
     2    1   31 1
     3    1   32 1
     4    2    3 1
     5    2   33 1
     6    3    4 1
     7    3   34 1
     8    3   35 1
     9    4    5 1
    10    5   10 ar
    11    5    6 ar
    12    6    7 ar
    13    6   36 1
    14    7    8 ar
    15    7   37 1
    16    8    9 ar
    17    8   38 1
    18    9   10 ar
    19    9   11 1
    20   10   39 1
    21   11   12 1
    22   11   17 1
    23   11   13 1
    24   13   14 1
    25   13   40 1
    26   14   15 1
    27   14   30 2
    28   15   16 1
    29   15   50 1
    30   16   24 2
    31   16   17 1
    32   17   18 1
    33   18   23 ar
    34   18   19 ar
    35   19   20 ar
    36   19   41 1
    37   20   29 1
    38   20   21 ar
    39   21   22 ar
    40   21   25 1
    41   22   23 ar
    42   22   42 1
    43   23   24 1
    44   25   26 1
    45   26   27 1
    46   26   43 1
    47   26   44 1
    48   27   28 1
    49   27   45 1
    50   27   46 1
    51   28   29 1
    52   28   47 1
    53   28   48 1
    54   30   49 1
    55   30   51 1
@<TRIPOS>MOLECULE
ZINC64019213
   59    63     0     0     0
SMALL
USER_CHARGES

@<TRIPOS>ATOM
      1 C1         -0.0184    1.5028    0.0103 C.3       1 <0>        -0.1186
      2 C2          0.0021   -0.0041    0.0020 C.ar      1 <0>        -0.0769
      3 C3          0.0058   -0.6883   -1.1999 C.ar      1 <0>        -0.1011
      4 C4          0.0250   -2.0707   -1.2118 C.ar      1 <0>        -0.1101
      5 C5          0.0405   -2.7729   -0.0224 C.ar      1 <0>        -0.0891
      6 C6          0.0368   -2.0890    1.1860 C.ar      1 <0>         0.1285
      7 C7          0.0229   -0.7001    1.1945 C.ar      1 <0>        -0.0768
      8 C8          0.0247    0.0463    2.5037 C.3       1 <0>        -0.1103
      9 N1          0.0521   -2.7974    2.3926 N.am      1 <0>        -0.5638
     10 C9         -1.2171   -3.1737    2.9981 C.3       1 <0>         0.5073
     11 H1         -1.6305   -2.3101    3.5191 H         1 <0>         0.1016
     12 N2         -1.0697   -4.2688    3.9426 N.2       1 <0>        -0.6054
     13 C10         0.0331   -4.5957    4.4957 C.2       1 <0>         0.3998
     14 C11         1.3237   -3.8787    4.2274 C.3       1 <0>        -0.0942
     15 H2          2.1318   -4.6064    4.1528 H         1 <0>         0.1438
     16 C12         1.2338   -3.1069    2.9415 C.2       1 <0>         0.5228
     17 O1          2.2545   -2.7524    2.3905 O.2       1 <0>        -0.4880
     18 C13         1.6158   -2.9141    5.3786 C.3       1 <0>         0.1140
     19 H3          2.5045   -2.3263    5.1487 H         1 <0>         0.0943
     20 C14         1.8401   -3.7049    6.6696 C.3       1 <0>         0.0888
     21 H4          1.0036   -4.3789    6.8540 H         1 <0>         0.1927
     22 C15         1.9525   -2.6736    7.7869 C.2       1 <0>         0.0559
     23 C16         3.0951   -2.9197    8.4111 C.ar      1 <0>        -0.1244
     24 C17         3.7111   -2.3265    9.6081 C.ar      1 <0>        -0.0780
     25 C18         4.9268   -2.8165    9.9765 C.ar      1 <0>         0.0962
     26 C19         5.6034   -3.8339    9.2880 C.ar      1 <0>        -0.0258
     27 C20         5.1259   -4.4534    8.1785 C.ar      1 <0>        -0.1537
     28 C21         3.8138   -4.0132    7.6853 C.ar      1 <0>         0.3235
     29 N3          3.1016   -4.4445    6.6642 N.pl3     1 <0>        -0.5683
     30 O2          5.5210   -2.2871   11.0783 O.3       1 <0>        -0.3036
     31 C22         6.7962   -2.8172   11.4456 C.3       1 <0>         0.0135
     32 C23         0.9281   -1.5783    7.9590 C.3       1 <0>        -0.0804
     33 C24         0.7191   -0.9624    6.5634 C.3       1 <0>         0.0560
     34 N4          0.4661   -2.0175    5.5781 N.3       1 <0>        -0.6947
     35 O3          0.0386   -5.6315    5.3603 O.3       1 <0>        -0.4761
     36 O4         -2.1234   -3.5709    1.9672 O.3       1 <0>        -0.5463
     37 H5          1.0042    1.8801    0.0026 H         1 <0>         0.0739
     38 H6         -0.5455    1.8639   -0.8728 H         1 <0>         0.0730
     39 H7         -0.5286    1.8543    0.9071 H         1 <0>         0.0692
     40 H8         -0.0067   -0.1415   -2.1312 H         1 <0>         0.1305
     41 H9          0.0275   -2.6020   -2.1520 H         1 <0>         0.1311
     42 H10         0.0551   -3.8528   -0.0323 H         1 <0>         0.1213
     43 H11        -1.0024    0.2119    2.8289 H         1 <0>         0.0757
     44 H12         0.5537   -0.5397    3.2552 H         1 <0>         0.0430
     45 H13         0.5240    1.0064    2.3738 H         1 <0>         0.0794
     46 H14         3.2236   -1.5411   10.1665 H         1 <0>         0.1742
     47 H15         6.5668   -4.1444    9.6647 H         1 <0>         0.1665
     48 H16         5.6842   -5.2331    7.6817 H         1 <0>         0.1789
     49 H17         7.5023   -2.6633   10.6296 H         1 <0>         0.0645
     50 H18         7.1574   -2.3085   12.3394 H         1 <0>         0.1173
     51 H19         6.7016   -3.8840   11.6479 H         1 <0>         0.0647
     52 H20        -0.0085   -1.9960    8.3282 H         1 <0>         0.1309
     53 H21         1.3006   -0.8222    8.6501 H         1 <0>         0.1208
     54 H22        -0.1329   -0.2831    6.5921 H         1 <0>         0.1169
     55 H23         1.6119   -0.4070    6.2761 H         1 <0>         0.0572
     56 H24         0.1557   -1.6270    4.7010 H         1 <0>         0.3670
     57 H25        -0.8267   -6.0448    5.4844 H         1 <0>         0.4247
     58 H26        -2.9948   -3.8374    2.2908 H         1 <0>         0.4082
     59 H27         3.3594   -5.1229    6.0205 H         1 <0>         0.4578
@<TRIPOS>BOND
     1    1    2 1
     2    1   37 1
     3    1   38 1
     4    1   39 1
     5    2    7 ar
     6    2    3 ar
     7    3    4 ar
     8    3   40 1
     9    4    5 ar
    10    4   41 1
    11    5    6 ar
    12    5   42 1
    13    6    7 ar
    14    6    9 1
    15    7    8 1
    16    8   43 1
    17    8   44 1
    18    8   45 1
    19    9   16 am
    20    9   10 1
    21   10   11 1
    22   10   12 1
    23   10   36 1
    24   12   13 2
    25   13   14 1
    26   13   35 1
    27   14   15 1
    28   14   16 1
    29   14   18 1
    30   16   17 2
    31   18   19 1
    32   18   34 1
    33   18   20 1
    34   20   21 1
    35   20   29 1
    36   20   22 1
    37   22   23 2
    38   22   32 1
    39   23   28 ar
    40   23   24 ar
    41   24   25 ar
    42   24   46 1
    43   25   26 ar
    44   25   30 1
    45   26   27 ar
    46   26   47 1
    47   27   28 ar
    48   27   48 1
    49   28   29 2
    50   29   59 1
    51   30   31 1
    52   31   49 1
    53   31   50 1
    54   31   51 1
    55   32   33 1
    56   32   52 1
    57   32   53 1
    58   33   34 1
    59   33   54 1
    60   33   55 1
    61   34   56 1
    62   35   57 1
    63   36   58 1
@<TRIPOS>MOLECULE
ZINC05003784
   34    35     0     0     0
SMALL
USER_CHARGES
4-[1-(4-amino-3-nitro-phenyl)-2,2-dichloro-vinyl]-2-nitro-aniline
@<TRIPOS>ATOM
      1 C1         -1.5044    4.7851    0.8393 C.ar      1 <0>         0.0049
      2 C2         -1.6167    6.1249    0.5346 C.ar      1 <0>        -0.1903
      3 C3         -1.2561    6.5846   -0.7267 C.ar      1 <0>         0.2931
      4 C4         -0.7770    5.6957   -1.6822 C.ar      1 <0>        -0.1179
      5 C5         -0.6580    4.3558   -1.3806 C.ar      1 <0>         0.0120
      6 C6         -1.0186    3.8923   -0.1156 C.ar      1 <0>        -0.1100
      7 C7         -0.8916    2.4521    0.2113 C.2       1 <0>        -0.0001
      8 C8          0.3202    1.8767    0.2477 C.2       1 <0>        -0.0180
      9 Cl1         0.4691    0.1900    0.6306 Cl        1 <0>        -0.0142
     10 Cl2         1.7385    2.8174   -0.0950 Cl        1 <0>        -0.0143
     11 C9         -2.1030    1.6476    0.4979 C.ar      1 <0>        -0.1100
     12 C10        -3.0539    1.4370   -0.5003 C.ar      1 <0>         0.0050
     13 C11        -4.1772    0.6839   -0.2327 C.ar      1 <0>        -0.1904
     14 C12        -4.3676    0.1433    1.0338 C.ar      1 <0>         0.2931
     15 C13        -3.4239    0.3566    2.0320 C.ar      1 <0>        -0.1180
     16 C14        -2.2964    1.1046    1.7679 C.ar      1 <0>         0.0121
     17 N1         -3.6297   -0.2205    3.3798 N.pl3     1 <0>         0.0470
     18 O1         -2.8602    0.0532    4.2834 O.2       1 <0>        -0.1578
     19 O2         -4.5684   -0.9689    3.5850 O.3       1 <0>        -0.1870
     20 N2         -5.5088   -0.6147    1.3038 N.pl3     1 <0>        -0.8490
     21 N3         -0.3938    6.1886   -3.0246 N.pl3     1 <0>         0.0468
     22 O3         -0.0828    5.3982   -3.8976 O.2       1 <0>        -0.1579
     23 O4         -0.3896    7.3844   -3.2561 O.3       1 <0>        -0.1868
     24 N4         -1.3757    7.9413   -1.0347 N.pl3     1 <0>        -0.8491
     25 H1         -1.7886    4.4277    1.8181 H         1 <0>         0.1452
     26 H2         -1.9890    6.8173    1.2752 H         1 <0>         0.1513
     27 H3         -0.2860    3.6656   -2.1233 H         1 <0>         0.1547
     28 H4         -2.9085    1.8602   -1.4832 H         1 <0>         0.1452
     29 H5         -4.9119    0.5171   -1.0065 H         1 <0>         0.1512
     30 H6         -1.5638    1.2703    2.5438 H         1 <0>         0.1548
     31 H7         -5.8367   -0.6903    2.2136 H         1 <0>         0.4181
     32 H8         -5.9736   -1.0656    0.5817 H         1 <0>         0.4090
     33 H9         -1.4816    8.2217   -1.9572 H         1 <0>         0.4180
     34 H10        -1.3530    8.6033   -0.3261 H         1 <0>         0.4091
@<TRIPOS>BOND
     1    1    6 ar
     2    1    2 ar
     3    1   25 1
     4    2    3 ar
     5    2   26 1
     6    3    4 ar
     7    3   24 1
     8    4    5 ar
     9    4   21 1
    10    5    6 ar
    11    5   27 1
    12    6    7 1
    13    7    8 2
    14    7   11 1
    15    8    9 1
    16    8   10 1
    17   11   16 ar
    18   11   12 ar
    19   12   13 ar
    20   12   28 1
    21   13   14 ar
    22   13   29 1
    23   14   15 ar
    24   14   20 1
    25   15   16 ar
    26   15   17 1
    27   16   30 1
    28   17   18 2
    29   17   19 1
    30   20   31 1
    31   20   32 1
    32   21   22 2
    33   21   23 1
    34   24   33 1
    35   24   34 1
@<TRIPOS>MOLECULE
ZINC09138053
   54    56     0     0     0
SMALL
USER_CHARGES
(4R)-N-(2,4-dimethylphenyl)-4-(3-ethoxy-4-hydroxy-phenyl)-6-methyl-2-thioxo-3,4-dihydro-1H-pyrimidine-5-carboxamide
@<TRIPOS>ATOM
      1 C1         -7.2891    1.5664    1.8234 C.3       1 <0>        -0.1539
      2 C2         -6.4740    1.8091    3.0952 C.3       1 <0>         0.0512
      3 O1         -6.5861    0.6744    3.9567 O.3       1 <0>        -0.3026
      4 C3         -5.9524    0.7461    5.1578 C.ar      1 <0>         0.0985
      5 C4         -5.2964    1.9090    5.5285 C.ar      1 <0>        -0.1490
      6 C5         -4.6483    1.9784    6.7476 C.ar      1 <0>        -0.1138
      7 C6         -4.6616    0.8930    7.6038 C.ar      1 <0>        -0.0910
      8 C7         -5.3190   -0.2682    7.2425 C.ar      1 <0>        -0.1782
      9 C8         -5.9662   -0.3462    6.0197 C.ar      1 <0>         0.1426
     10 O2         -6.6137   -1.4877    5.6630 O.3       1 <0>        -0.4966
     11 C9         -3.9310    3.2421    7.1468 C.3       1 <0>         0.2309
     12 H1         -4.1456    4.1158    6.5139 H         1 <0>         0.0987
     13 C10        -2.4415    2.9927    7.0233 C.2       1 <0>        -0.2599
     14 C11        -1.6834    3.1551    8.1283 C.2       1 <0>         0.1819
     15 N1         -2.2396    3.5409    9.3144 N.pl3     1 <0>        -0.6183
     16 C12        -3.5476    3.7748    9.4799 C.2       1 <0>         0.5645
     17 S1         -4.1154    4.2478   11.0242 S.2       1 <0>        -0.6196
     18 N2         -4.4317    3.6496    8.4704 N.pl3     1 <0>        -0.6632
     19 C13        -0.1982    2.9117    8.0506 C.3       1 <0>        -0.1342
     20 C14        -1.8651    2.5969    5.7917 C.2       1 <0>         0.5988
     21 O3         -1.7646    3.3989    4.8809 O.2       1 <0>        -0.5122
     22 N3         -1.4278    1.3327    5.6277 N.am      1 <0>        -0.6703
     23 C15        -0.7348    0.9776    4.4662 C.ar      1 <0>         0.1419
     24 C16        -1.0171    1.6153    3.2648 C.ar      1 <0>        -0.1191
     25 C17        -0.3312    1.2620    2.1196 C.ar      1 <0>        -0.1078
     26 C18         0.6360    0.2745    2.1678 C.ar      1 <0>        -0.0968
     27 C19         0.9154   -0.3660    3.3608 C.ar      1 <0>        -0.1024
     28 C20         0.2369   -0.0135    4.5111 C.ar      1 <0>        -0.1101
     29 C21         0.5461   -0.7083    5.8122 C.3       1 <0>        -0.1148
     30 C22         1.3825   -0.1084    0.9159 C.3       1 <0>        -0.1164
     31 H2         -7.2028    2.4398    1.1603 H         1 <0>         0.0807
     32 H3         -8.3451    1.4105    2.0889 H         1 <0>         0.0676
     33 H4         -6.9054    0.6744    1.3066 H         1 <0>         0.0678
     34 H5         -5.4180    1.9650    2.8297 H         1 <0>         0.0624
     35 H6         -6.8577    2.7011    3.6120 H         1 <0>         0.0615
     36 H7         -5.2880    2.7598    4.8633 H         1 <0>         0.1356
     37 H8         -4.1576    0.9525    8.5571 H         1 <0>         0.1190
     38 H9         -5.3279   -1.1147    7.9131 H         1 <0>         0.1369
     39 H10        -6.6238   -2.3504    6.3453 H         1 <0>         0.4338
     40 H11        -1.6039    3.6756   10.2019 H         1 <0>         0.4704
     41 H12        -5.5045    3.8438    8.6167 H         1 <0>         0.4770
     42 H13         0.2547    3.0904    9.0370 H         1 <0>         0.0869
     43 H14         0.2473    3.5956    7.3132 H         1 <0>         0.0964
     44 H15        -0.0126    1.8714    7.7449 H         1 <0>         0.0949
     45 H16        -1.6160    0.5801    6.4076 H         1 <0>         0.4308
     46 H17        -1.7719    2.3867    3.2266 H         1 <0>         0.1438
     47 H18        -0.5500    1.7577    1.1853 H         1 <0>         0.1234
     48 H19         1.6681   -1.1398    3.3941 H         1 <0>         0.1245
     49 H20         1.3365   -1.4559    5.6498 H         1 <0>         0.0718
     50 H21        -0.3600   -1.2079    6.1854 H         1 <0>         0.0659
     51 H22         0.8875    0.0318    6.5510 H         1 <0>         0.0671
     52 H23         2.1052   -0.9042    1.1489 H         1 <0>         0.0646
     53 H24         1.9174    0.7697    0.5249 H         1 <0>         0.0694
     54 H25         0.6697   -0.4701    0.1602 H         1 <0>         0.0693
@<TRIPOS>BOND
     1    1    2 1
     2    1   31 1
     3    1   32 1
     4    1   33 1
     5    2    3 1
     6    2   34 1
     7    2   35 1
     8    3    4 1
     9    4    9 ar
    10    4    5 ar
    11    5    6 ar
    12    5   36 1
    13    6    7 ar
    14    6   11 1
    15    7    8 ar
    16    7   37 1
    17    8    9 ar
    18    8   38 1
    19    9   10 1
    20   10   39 1
    21   11   12 1
    22   11   18 1
    23   11   13 1
    24   13   14 2
    25   13   20 1
    26   14   15 1
    27   14   19 1
    28   15   16 1
    29   15   40 1
    30   16   17 2
    31   16   18 1
    32   18   41 1
    33   19   42 1
    34   19   43 1
    35   19   44 1
    36   20   21 2
    37   20   22 am
    38   22   23 1
    39   22   45 1
    40   23   28 ar
    41   23   24 ar
    42   24   25 ar
    43   24   46 1
    44   25   26 ar
    45   25   47 1
    46   26   27 ar
    47   26   30 1
    48   27   28 ar
    49   27   48 1
    50   28   29 1
    51   29   49 1
    52   29   50 1
    53   29   51 1
    54   30   52 1
    55   30   53 1
    56   30   54 1
@<TRIPOS>MOLECULE
ZINC36817729
   49    51     0     0     0
SMALL
USER_CHARGES

@<TRIPOS>ATOM
      1 C1          0.0910    0.3382    3.3926 C.3       1 <0>        -0.1658
      2 C2          0.0187   -1.1515    3.0515 C.3       1 <0>         0.1284
      3 N1         -1.3482   -1.4953    2.6521 N.am      1 <0>        -0.7369
      4 C3         -1.6504   -2.7620    2.3049 C.2       1 <0>         0.6931
      5 O1         -0.7889   -3.6191    2.3232 O.2       1 <0>        -0.5244
      6 N2         -2.9079   -3.0783    1.9374 N.am      1 <0>        -0.6849
      7 C4         -3.2101   -4.3451    1.5902 C.2       1 <0>         0.5411
      8 O2         -2.3507   -5.2000    1.6085 O.2       1 <0>        -0.4439
      9 C5         -4.6162   -4.6987    1.1793 C.3       1 <0>        -0.1184
     10 H1         -5.0261   -3.8996    0.5617 H         1 <0>         0.1281
     11 C6         -5.4833   -4.8745    2.4276 C.3       1 <0>        -0.1441
     12 S1         -4.5984   -6.2460    0.2326 S.3       1 <0>         0.1050
     13 C7         -6.2683   -6.4425   -0.2943 C.ar      1 <0>         0.3467
     14 N3         -7.1698   -5.5272    0.0424 N.ar      1 <0>        -0.5957
     15 C8         -8.4366   -5.6203   -0.3244 C.ar      1 <0>         0.5018
     16 C9         -8.8546   -6.7343   -1.1055 C.ar      1 <0>        -0.2479
     17 C10       -10.1908   -7.0404   -1.6217 C.2       1 <0>        -0.0792
     18 C11       -10.3237   -8.1714   -2.3425 C.2       1 <0>        -0.1488
     19 S2         -8.7034   -8.8899   -2.3792 S.3       1 <0>         0.1231
     20 C12        -7.8463   -7.6650   -1.4244 C.ar      1 <0>         0.1585
     21 N4         -6.6002   -7.4989   -1.0243 N.ar      1 <0>        -0.4950
     22 C13       -11.5736   -8.7029   -2.9756 C.3       1 <0>        -0.0360
     23 C14       -12.6195   -7.5791   -3.0013 C.3       1 <0>        -0.0863
     24 H2        -12.3375   -6.8341   -3.7453 H         1 <0>         0.0775
     25 C15       -12.6733   -6.9276   -1.6163 C.3       1 <0>        -0.1152
     26 C16       -11.3911   -6.1328   -1.3664 C.3       1 <0>        -0.0717
     27 C17       -13.9901   -8.1615   -3.3520 C.3       1 <0>        -0.1483
     28 N5         -9.3455   -4.6464    0.0470 N.pl3     1 <0>        -0.8323
     29 H3          1.1080    0.5940    3.6898 H         1 <0>         0.0788
     30 H4         -0.1906    0.9252    2.5183 H         1 <0>         0.0630
     31 H5         -0.5931    0.5568    4.2126 H         1 <0>         0.0629
     32 H6          0.7027   -1.3701    2.2315 H         1 <0>         0.0711
     33 H7          0.3003   -1.7385    3.9258 H         1 <0>         0.0711
     34 H8         -2.0358   -0.8113    2.6375 H         1 <0>         0.3991
     35 H9         -3.5955   -2.3943    1.9228 H         1 <0>         0.4114
     36 H10        -5.4940   -3.9448    2.9964 H         1 <0>         0.0709
     37 H11        -6.5004   -5.1303    2.1304 H         1 <0>         0.0907
     38 H12        -5.0734   -5.6736    3.0452 H         1 <0>         0.0737
     39 H13       -11.3596   -9.0285   -3.9936 H         1 <0>         0.0864
     40 H14       -11.9516   -9.5429   -2.3929 H         1 <0>         0.0886
     41 H15       -13.5310   -6.2569   -1.5647 H         1 <0>         0.0741
     42 H16       -12.7741   -7.7017   -0.8556 H         1 <0>         0.0698
     43 H17       -11.3730   -5.7851   -0.3335 H         1 <0>         0.0788
     44 H18       -11.3530   -5.2783   -2.0420 H         1 <0>         0.0809
     45 H19       -14.2725   -8.9021   -2.6037 H         1 <0>         0.0582
     46 H20       -14.7309   -7.3621   -3.3697 H         1 <0>         0.0597
     47 H21       -13.9435   -8.6353   -4.3326 H         1 <0>         0.0594
     48 H22       -10.2009   -4.5831   -0.4061 H         1 <0>         0.4146
     49 H23        -9.1276   -4.0265    0.7605 H         1 <0>         0.4082
@<TRIPOS>BOND
     1    1    2 1
     2    1   29 1
     3    1   30 1
     4    1   31 1
     5    2    3 1
     6    2   32 1
     7    2   33 1
     8    3    4 am
     9    3   34 1
    10    4    5 2
    11    4    6 am
    12    6    7 am
    13    6   35 1
    14    7    8 2
    15    7    9 1
    16    9   10 1
    17    9   11 1
    18    9   12 1
    19   11   36 1
    20   11   37 1
    21   11   38 1
    22   12   13 1
    23   13   21 ar
    24   13   14 ar
    25   14   15 ar
    26   15   16 ar
    27   15   28 1
    28   16   20 ar
    29   16   17 1
    30   17   26 1
    31   17   18 2
    32   18   19 1
    33   18   22 1
    34   19   20 1
    35   20   21 ar
    36   22   23 1
    37   22   39 1
    38   22   40 1
    39   23   24 1
    40   23   25 1
    41   23   27 1
    42   25   26 1
    43   25   41 1
    44   25   42 1
    45   26   43 1
    46   26   44 1
    47   27   45 1
    48   27   46 1
    49   27   47 1
    50   28   48 1
    51   28   49 1
@<TRIPOS>MOLECULE
ZINC40684798
   47    51     0     0     0
SMALL
USER_CHARGES

@<TRIPOS>ATOM
      1 C1          1.9505    0.7413    0.0754 C.3       1 <0>        -0.1063
      2 C2          1.1958   -0.5629    0.0515 C.ar      1 <0>         0.1522
      3 C3          1.0330   -1.2304   -1.1606 C.ar      1 <0>        -0.1696
      4 C4          0.3519   -2.4134   -1.2007 C.ar      1 <0>        -0.0560
      5 C5         -0.1684   -2.9218    0.0049 C.ar      1 <0>        -0.0841
      6 C6         -0.8790   -4.1327    0.0396 C.ar      1 <0>        -0.1290
      7 C7         -1.3698   -4.5986    1.2213 C.ar      1 <0>        -0.0847
      8 C8         -1.1788   -3.8915    2.4048 C.ar      1 <0>        -0.1305
      9 C9         -0.4871   -2.6999    2.4116 C.ar      1 <0>         0.1867
     10 C10         0.0339   -2.1914    1.2009 C.ar      1 <0>         0.1074
     11 N1          0.7142   -1.0425    1.1725 N.ar      1 <0>        -0.4806
     12 N2         -0.3027   -2.0010    3.6046 N.pl3     1 <0>        -0.6322
     13 C11        -0.3902   -2.6677    4.8213 C.ar      1 <0>         0.3885
     14 C12        -0.3264   -1.9604    6.0236 C.ar      1 <0>         0.0228
     15 C13        -0.4199   -2.6792    7.2169 C.ar      1 <0>         0.3896
     16 N3         -0.5652   -4.0013    7.1635 N.ar      1 <0>        -0.5524
     17 C14        -0.6209   -4.6303    6.0071 C.ar      1 <0>         0.3211
     18 N4         -0.5417   -3.9896    4.8584 N.ar      1 <0>        -0.5529
     19 N5         -0.3616   -2.0243    8.4419 N.pl3     1 <0>        -0.6506
     20 C15        -0.3427   -2.7634    9.6303 C.ar      1 <0>         0.1796
     21 C16        -0.9572   -2.2615   10.7702 C.ar      1 <0>        -0.1447
     22 C17        -0.9393   -2.9902   11.9440 C.ar      1 <0>        -0.0767
     23 C18        -0.3090   -4.2232   11.9875 C.ar      1 <0>         0.0086
     24 C19         0.3078   -4.7295   10.8461 C.ar      1 <0>         0.0559
     25 C20         0.2854   -4.0009    9.6684 C.ar      1 <0>        -0.0992
     26 O1          0.8506   -5.9456   11.1462 O.3       1 <0>        -0.3065
     27 C21         0.9148   -5.9941   12.5838 C.3       1 <0>         0.2133
     28 O2         -0.1523   -5.1232   13.0034 O.3       1 <0>        -0.3094
     29 N6         -0.1720   -0.5653    6.0322 N.pl3     1 <0>        -0.8731
     30 H1          3.0100    0.5450    0.2398 H         1 <0>         0.0798
     31 H2          1.8196    1.2544   -0.8773 H         1 <0>         0.0775
     32 H3          1.5678    1.3678    0.8812 H         1 <0>         0.0766
     33 H4          1.4447   -0.8125   -2.0674 H         1 <0>         0.1373
     34 H5          0.2159   -2.9442   -2.1314 H         1 <0>         0.1409
     35 H6         -1.0364   -4.6935   -0.8699 H         1 <0>         0.1285
     36 H7         -1.9156   -5.5304    1.2403 H         1 <0>         0.1300
     37 H8         -1.5781   -4.2816    3.3294 H         1 <0>         0.1656
     38 H9         -0.1134   -1.0499    3.5852 H         1 <0>         0.4212
     39 H10        -0.7393   -5.7038    6.0005 H         1 <0>         0.2010
     40 H11        -0.3341   -1.0552    8.4729 H         1 <0>         0.4170
     41 H12        -1.4493   -1.3006   10.7391 H         1 <0>         0.1384
     42 H13        -1.4172   -2.5977   12.8294 H         1 <0>         0.1388
     43 H14         0.7598   -4.3935    8.7812 H         1 <0>         0.1488
     44 H15         0.7432   -7.0096   12.9408 H         1 <0>         0.1318
     45 H16         1.8757   -5.6201   12.9370 H         1 <0>         0.0838
     46 H17        -0.1081   -0.0792    5.1952 H         1 <0>         0.3986
     47 H18        -0.1293   -0.0873    6.8752 H         1 <0>         0.3970
@<TRIPOS>BOND
     1    1    2 1
     2    1   30 1
     3    1   31 1
     4    1   32 1
     5    2   11 ar
     6    2    3 ar
     7    3    4 ar
     8    3   33 1
     9    4    5 ar
    10    4   34 1
    11    5   10 ar
    12    5    6 ar
    13    6    7 ar
    14    6   35 1
    15    7    8 ar
    16    7   36 1
    17    8    9 ar
    18    8   37 1
    19    9   10 ar
    20    9   12 1
    21   10   11 ar
    22   12   13 1
    23   12   38 1
    24   13   18 ar
    25   13   14 ar
    26   14   15 ar
    27   14   29 1
    28   15   16 ar
    29   15   19 1
    30   16   17 ar
    31   17   18 ar
    32   17   39 1
    33   19   20 1
    34   19   40 1
    35   20   25 ar
    36   20   21 ar
    37   21   22 ar
    38   21   41 1
    39   22   23 ar
    40   22   42 1
    41   23   28 1
    42   23   24 ar
    43   24   25 ar
    44   24   26 1
    45   25   43 1
    46   26   27 1
    47   27   28 1
    48   27   44 1
    49   27   45 1
    50   29   46 1
    51   29   47 1
@<TRIPOS>MOLECULE
ZINC59384874
   44    46     0     0     0
SMALL
USER_CHARGES

@<TRIPOS>ATOM
      1 C1          0.6333    1.2247   -0.1314 C.3       1 <0>        -0.1327
      2 C2          0.3789   -0.2592   -0.0640 C.2       1 <0>         0.1786
      3 C3         -0.8855   -0.7213   -0.1645 C.2       1 <0>        -0.2480
      4 C4         -1.0966   -2.2200   -0.0917 C.3       1 <0>         0.2206
      5 H1         -1.7726   -2.4241    0.7387 H         1 <0>         0.1112
      6 N1          0.1035   -3.0551    0.0841 N.pl3     1 <0>        -0.6458
      7 C5          1.3024   -2.4455    0.1686 C.2       1 <0>         0.5577
      8 S1          2.7063   -3.4039    0.3724 S.2       1 <0>        -0.5901
      9 N2          1.4320   -1.1149    0.0924 N.pl3     1 <0>        -0.5986
     10 C6         -1.7824   -2.6548   -1.3612 C.ar      1 <0>        -0.1163
     11 C7         -1.0317   -3.0721   -2.4444 C.ar      1 <0>        -0.0906
     12 C8         -1.6606   -3.4709   -3.6089 C.ar      1 <0>        -0.1112
     13 C9         -3.0406   -3.4527   -3.6911 C.ar      1 <0>        -0.0955
     14 C10        -3.7921   -3.0357   -2.6089 C.ar      1 <0>        -0.1065
     15 C11        -3.1633   -2.6418   -1.4409 C.ar      1 <0>        -0.0245
     16 Cl1        -4.1069   -2.1241   -0.0787 Cl        1 <0>        -0.0418
     17 C12        -1.9776    0.1646   -0.3319 C.2       1 <0>         0.6126
     18 O1         -2.6783    0.4544    0.6212 O.2       1 <0>        -0.4742
     19 N3         -2.2416    0.6870   -1.5459 N.am      1 <0>        -0.5753
     20 N4         -3.2598    1.6380   -1.6930 N.2       1 <0>        -0.2223
     21 C13        -3.4500    2.2130   -2.8410 C.2       1 <0>         0.1131
     22 C14        -4.4464    3.2920   -2.9690 C.ar      1 <0>        -0.0679
     23 C15        -5.1832    3.7013   -1.8544 C.ar      1 <0>        -0.0598
     24 C16        -6.1135    4.7102   -1.9787 C.ar      1 <0>        -0.1506
     25 C17        -6.3198    5.3198   -3.2096 C.ar      1 <0>         0.1244
     26 C18        -5.5898    4.9163   -4.3202 C.ar      1 <0>        -0.1505
     27 C19        -4.6529    3.9124   -4.2040 C.ar      1 <0>        -0.0718
     28 O2         -7.2386    6.3135   -3.3277 O.3       1 <0>        -0.4994
     29 H2          1.7026    1.4146   -0.0386 H         1 <0>         0.0892
     30 H3          0.2772    1.6113   -1.0863 H         1 <0>         0.0940
     31 H4          0.1041    1.7214    0.6818 H         1 <0>         0.1015
     32 H5          0.0327   -4.0211    0.1380 H         1 <0>         0.4491
     33 H6          2.3232   -0.7373    0.1561 H         1 <0>         0.4426
     34 H7          0.0463   -3.0862   -2.3809 H         1 <0>         0.1286
     35 H8         -1.0737   -3.7965   -4.4550 H         1 <0>         0.1343
     36 H9         -3.5314   -3.7641   -4.6013 H         1 <0>         0.1368
     37 H10        -4.8701   -3.0213   -2.6733 H         1 <0>         0.1381
     38 H11        -1.7266    0.4046   -2.3179 H         1 <0>         0.3844
     39 H12        -2.8783    1.9009   -3.7025 H         1 <0>         0.1204
     40 H13        -5.0240    3.2274   -0.8971 H         1 <0>         0.1403
     41 H14        -6.6834    5.0273   -1.1179 H         1 <0>         0.1336
     42 H15        -5.7537    5.3929   -5.2754 H         1 <0>         0.1344
     43 H16        -4.0823    3.6026   -5.0670 H         1 <0>         0.1331
     44 H17        -6.8830    7.1988   -3.1701 H         1 <0>         0.3949
@<TRIPOS>BOND
     1    1    2 1
     2    1   29 1
     3    1   30 1
     4    1   31 1
     5    2    9 1
     6    2    3 2
     7    3    4 1
     8    3   17 1
     9    4    5 1
    10    4    6 1
    11    4   10 1
    12    6    7 1
    13    6   32 1
    14    7    8 2
    15    7    9 1
    16    9   33 1
    17   10   15 ar
    18   10   11 ar
    19   11   12 ar
    20   11   34 1
    21   12   13 ar
    22   12   35 1
    23   13   14 ar
    24   13   36 1
    25   14   15 ar
    26   14   37 1
    27   15   16 1
    28   17   18 2
    29   17   19 am
    30   19   20 1
    31   19   38 1
    32   20   21 2
    33   21   22 1
    34   21   39 1
    35   22   27 ar
    36   22   23 ar
    37   23   24 ar
    38   23   40 1
    39   24   25 ar
    40   24   41 1
    41   25   26 ar
    42   25   28 1
    43   26   27 ar
    44   26   42 1
    45   27   43 1
    46   28   44 1
@<TRIPOS>MOLECULE
ZINC00078168
   49    51     0     0     0
SMALL
USER_CHARGES
2-(2-azepan-1-ylacetyl)amino-4,5,6,7-tetrahydrobenzothiophene-3-carboxamide
@<TRIPOS>ATOM
      1 C1         -0.4707    4.0274   -0.9097 C.3       1 <0>        -0.1334
      2 C2         -0.0353    2.8783   -1.6959 C.3       1 <0>        -0.1326
      3 C3         -0.7085    1.5684   -1.2355 C.3       1 <0>        -0.1399
      4 C4         -0.0127    1.0858    0.0080 C.3       1 <0>         0.0025
      5 C5         -1.1220    2.9568    1.2227 C.3       1 <0>        -0.0094
      6 C6         -0.1180    3.8780    0.5851 C.3       1 <0>        -0.1389
      7 C7         -1.7748    0.6501    1.6241 C.3       1 <0>        -0.0184
      8 C8         -2.2617    1.0027    3.0061 C.2       1 <0>         0.4937
      9 O1         -1.7425    1.9118    3.6183 O.2       1 <0>        -0.4948
     10 N1         -3.2740    0.3077    3.5616 N.am      1 <0>        -0.5933
     11 C9         -3.7220    0.6321    4.8331 C.2       1 <0>         0.0280
     12 C10        -4.7445    0.0432    5.5634 C.2       1 <0>        -0.1871
     13 C11        -5.0156    0.5744    6.8883 C.2       1 <0>        -0.0725
     14 C12        -4.2328    1.6090    7.2645 C.2       1 <0>        -0.1797
     15 S1         -3.1460    1.8761    5.8927 S.3       1 <0>         0.2332
     16 C13        -4.2854    2.3567    8.5610 C.3       1 <0>        -0.0425
     17 C14        -5.6107    2.0201    9.2600 C.3       1 <0>        -0.1158
     18 C15        -5.8073    0.5015    9.2398 C.3       1 <0>        -0.1222
     19 C16        -6.0993    0.0338    7.8129 C.3       1 <0>        -0.0639
     20 C17        -5.5199   -1.0762    5.0197 C.2       1 <0>         0.5761
     21 O2         -5.1528   -2.2207    5.2113 O.2       1 <0>        -0.5254
     22 N2         -6.6393   -0.8378    4.3079 N.am      1 <0>        -0.8456
     23 H1          0.0102    4.9249   -1.2987 H         1 <0>         0.0854
     24 H2         -1.5510    4.1344   -1.0079 H         1 <0>         0.0721
     25 H3          1.0454    2.7733   -1.6003 H         1 <0>         0.0750
     26 H4         -0.2820    3.0538   -2.7430 H         1 <0>         0.0851
     27 H5         -0.6208    0.8163   -2.0196 H         1 <0>         0.1127
     28 H6         -1.7604    1.7540   -1.0180 H         1 <0>         0.0840
     29 H7          0.0021   -0.0041    0.0020 H         1 <0>         0.1274
     30 H8          1.0144    1.4508    0.0002 H         1 <0>         0.1315
     31 H9         -1.3033    3.2880    2.2452 H         1 <0>         0.1443
     32 H10        -2.0563    3.0145    0.6643 H         1 <0>         0.1239
     33 H11         0.8819    3.4556    0.6850 H         1 <0>         0.0860
     34 H12        -0.1566    4.8536    1.0697 H         1 <0>         0.1111
     35 H13        -2.5922    0.7607    0.9117 H         1 <0>         0.1663
     36 H14        -1.4222   -0.3812    1.6153 H         1 <0>         0.1639
     37 H15        -3.6892   -0.4194    3.0719 H         1 <0>         0.4264
     38 H16        -3.4501    2.0551    9.1929 H         1 <0>         0.0888
     39 H17        -4.2326    3.4284    8.3693 H         1 <0>         0.0859
     40 H18        -5.5789    2.3707   10.2916 H         1 <0>         0.0796
     41 H19        -6.4340    2.5042    8.7348 H         1 <0>         0.0703
     42 H20        -4.9022    0.0143    9.6025 H         1 <0>         0.0693
     43 H21        -6.6448    0.2362    9.8851 H         1 <0>         0.0761
     44 H22        -6.0992   -1.0557    7.7783 H         1 <0>         0.0787
     45 H23        -7.0727    0.4092    7.4973 H         1 <0>         0.0811
     46 H24        -6.9319    0.0743    4.1552 H         1 <0>         0.4044
     47 H25        -7.1522   -1.5783    3.9482 H         1 <0>         0.4079
     48 N3         -0.6449    1.5337    1.2953 N.4       1 <0>        -0.3927
     49 H26         0.0572    1.4655    2.0415 H         1 <0>         0.4371
@<TRIPOS>BOND
     1    1    6 1
     2    1    2 1
     3    1   23 1
     4    1   24 1
     5    2    3 1
     6    2   25 1
     7    2   26 1
     8    3    4 1
     9    3   27 1
    10    3   28 1
    11    4   29 1
    12    4   30 1
    13    4   48 1
    14    5    6 1
    15    5   31 1
    16    5   32 1
    17    5   48 1
    18    6   33 1
    19    6   34 1
    20    7    8 1
    21    7   35 1
    22    7   36 1
    23    7   48 1
    24    8    9 2
    25    8   10 am
    26   10   11 1
    27   10   37 1
    28   11   15 1
    29   11   12 2
    30   12   13 1
    31   12   20 1
    32   13   19 1
    33   13   14 2
    34   14   15 1
    35   14   16 1
    36   16   17 1
    37   16   38 1
    38   16   39 1
    39   17   18 1
    40   17   40 1
    41   17   41 1
    42   18   19 1
    43   18   42 1
    44   18   43 1
    45   19   44 1
    46   19   45 1
    47   20   21 2
    48   20   22 am
    49   22   46 1
    50   22   47 1
    51   48   49 1
@<TRIPOS>MOLECULE
ZINC37261829
   36    36     0     0     0
SMALL
USER_CHARGES

@<TRIPOS>ATOM
      1 C1         -0.0187    1.5258    0.0104 C.3       1 <0>        -0.1843
      2 C2          0.0021   -0.0041    0.0020 C.3       1 <0>         0.0840
      3 H1          0.5123   -0.3556   -0.8948 H         1 <0>         0.1521
      4 C3         -1.4117   -0.5257    0.0127 C.ar      1 <0>        -0.1863
      5 C4         -2.1219   -0.5704    1.1984 C.ar      1 <0>        -0.0648
      6 C5         -3.4179   -1.0485    1.2114 C.ar      1 <0>        -0.1924
      7 C6         -4.0075   -1.4837    0.0335 C.ar      1 <0>         0.1873
      8 C7         -3.2931   -1.4375   -1.1555 C.ar      1 <0>        -0.1258
      9 C8         -1.9983   -0.9533   -1.1638 C.ar      1 <0>        -0.0178
     10 Br1        -4.0924   -2.0302   -2.7635 Br        1 <0>        -0.0023
     11 O1         -5.2823   -1.9549    0.0440 O.3       1 <0>        -0.2917
     12 C9         -5.9567   -1.9737    1.3037 C.3       1 <0>         0.0188
     13 N1          0.7126   -0.4907    1.1921 N.4       1 <0>        -0.5019
     14 C10         2.1220   -0.0825    1.1220 C.3       1 <0>         0.0025
     15 C11         2.8620   -0.5894    2.3615 C.3       1 <0>        -0.6877
     16 S1          4.6024   -0.0853    2.2750 S.o2      1 <0>         2.6337
     17 O2          5.2582   -0.7703    1.2167 O.2       1 <0>        -0.9366
     18 O3          4.7101    1.3260    2.4010 O.2       1 <0>        -0.9370
     19 N2          5.2888   -0.6866    3.6569 N.pl3     1 <0>        -1.2432
     20 H2          1.0039    1.9031    0.0027 H         1 <0>         0.0875
     21 H3         -0.5459    1.8868   -0.8726 H         1 <0>         0.1127
     22 H4         -0.5289    1.8773    0.9072 H         1 <0>         0.0852
     23 H5         -1.6627   -0.2316    2.1153 H         1 <0>         0.1285
     24 H6         -3.9716   -1.0838    2.1380 H         1 <0>         0.1499
     25 H7         -1.4431   -0.9133   -2.0893 H         1 <0>         0.1512
     26 H8         -6.0160   -0.9598    1.6993 H         1 <0>         0.0650
     27 H9         -6.9629   -2.3714    1.1712 H         1 <0>         0.1159
     28 H10        -5.4057   -2.6043    2.0014 H         1 <0>         0.0641
     29 H11         0.2896   -0.0986    2.0201 H         1 <0>         0.4266
     30 H12         2.5788   -0.5061    0.2276 H         1 <0>         0.1525
     31 H13         2.1837    1.0050    1.0814 H         1 <0>         0.1518
     32 H14         2.4051   -0.1658    3.2560 H         1 <0>         0.1599
     33 H15         2.8002   -1.6769    2.4022 H         1 <0>         0.1607
     34 H16         4.7485   -1.1853    4.2895 H         1 <0>         0.4163
     35 H17         6.2312   -0.5401    3.8337 H         1 <0>         0.4319
     36 H18         0.6554   -1.4974    1.2298 H         1 <0>         0.4337
@<TRIPOS>BOND
     1    1    2 1
     2    1   20 1
     3    1   21 1
     4    1   22 1
     5    2    3 1
     6    2    4 1
     7    2   13 1
     8    4    9 ar
     9    4    5 ar
    10    5    6 ar
    11    5   23 1
    12    6    7 ar
    13    6   24 1
    14    7    8 ar
    15    7   11 1
    16    8    9 ar
    17    8   10 1
    18    9   25 1
    19   11   12 1
    20   12   26 1
    21   12   27 1
    22   12   28 1
    23   13   14 1
    24   13   29 1
    25   13   36 1
    26   14   15 1
    27   14   30 1
    28   14   31 1
    29   15   16 1
    30   15   32 1
    31   15   33 1
    32   16   17 2
    33   16   18 2
    34   16   19 1
    35   19   34 1
    36   19   35 1
@<TRIPOS>MOLECULE
ZINC43223301
   54    57     0     0     0
SMALL
USER_CHARGES

@<TRIPOS>ATOM
      1 C1         -0.0167    1.3768    0.0096 C.ar      1 <0>        -0.1065
      2 C2          1.1719    2.0830    0.0021 C.ar      1 <0>        -0.1249
      3 C3          2.3755    1.4061   -0.0130 C.ar      1 <0>        -0.0971
      4 C4          2.3964    0.0213   -0.0206 C.ar      1 <0>        -0.1189
      5 C5          1.2082   -0.6847   -0.0132 C.ar      1 <0>        -0.0845
      6 C6          0.0021   -0.0041    0.0020 C.ar      1 <0>        -0.1029
      7 C7          1.4958   -2.1708   -0.0245 C.3       1 <0>        -0.0864
      8 C8          2.9655   -2.2943   -0.4796 C.3       1 <0>        -0.1252
      9 C9          3.5639   -0.9420   -0.0373 C.3       1 <0>         0.1849
     10 H1          3.9975   -1.0281    0.9590 H         1 <0>         0.1095
     11 N1          4.5770   -0.4963   -0.9970 N.am      1 <0>        -0.7100
     12 C10         5.5242    0.3840   -0.6170 C.2       1 <0>         0.5097
     13 O1          5.5377    0.8071    0.5196 O.2       1 <0>        -0.5148
     14 C11         6.5664    0.8426   -1.6042 C.3       1 <0>        -0.1306
     15 H2          7.1340   -0.0097   -1.9777 H         1 <0>         0.1681
     16 C12         5.9008    1.5979   -2.7745 C.3       1 <0>         0.0052
     17 N2          5.9900    3.0312   -2.3940 N.4       1 <0>        -0.5158
     18 C13         7.3351    3.1620   -1.7771 C.3       1 <0>         0.0065
     19 C14         7.5116    1.8695   -0.9472 C.3       1 <0>        -0.1272
     20 H3          7.2218    2.0418    0.0893 H         1 <0>         0.1566
     21 C15         8.9382    1.3892   -1.0200 C.2       1 <0>         0.5210
     22 O2          9.1941    0.3263   -1.5451 O.2       1 <0>        -0.5190
     23 N3          9.9296    2.1408   -0.5016 N.am      1 <0>        -0.7118
     24 C16        11.3164    1.6739   -0.5724 C.3       1 <0>         0.1194
     25 C17        12.2360    2.7056    0.0839 C.3       1 <0>         0.0653
     26 H4         11.9527    2.8555    1.1258 H         1 <0>         0.0820
     27 C18        13.7130    2.2471   -0.0112 C.3       1 <0>        -0.1492
     28 C19        14.4513    3.6104    0.0799 C.3       1 <0>        -0.1572
     29 C20        13.4779    4.5596   -0.6515 C.3       1 <0>         0.0509
     30 O3         12.1804    3.9498   -0.6318 O.3       1 <0>        -0.3842
     31 H5         -0.9588    1.9046    0.0259 H         1 <0>         0.1291
     32 H6          1.1591    3.1629    0.0076 H         1 <0>         0.1244
     33 H7          3.3036    1.9584   -0.0192 H         1 <0>         0.1082
     34 H8         -0.9268   -0.5550    0.0083 H         1 <0>         0.1266
     35 H9          1.3732   -2.5874    0.9752 H         1 <0>         0.0907
     36 H10         0.8376   -2.6780   -0.7299 H         1 <0>         0.0860
     37 H11         3.4603   -3.1218    0.0288 H         1 <0>         0.0917
     38 H12         3.0276   -2.4101   -1.5616 H         1 <0>         0.0826
     39 H13         4.5662   -0.8347   -1.9060 H         1 <0>         0.4054
     40 H14         6.4438    1.4164   -3.7020 H         1 <0>         0.1542
     41 H15         4.8584    1.2962   -2.8779 H         1 <0>         0.1425
     42 H16         5.9180    3.6185   -3.2113 H         1 <0>         0.4409
     43 H17         8.1026    3.2252   -2.5485 H         1 <0>         0.1443
     44 H18         7.3728    4.0379   -1.1295 H         1 <0>         0.1518
     45 H19         9.7248    2.9908   -0.0816 H         1 <0>         0.4080
     46 H20        11.4064    0.7219   -0.0491 H         1 <0>         0.0892
     47 H21        11.6030    1.5434   -1.6159 H         1 <0>         0.0825
     48 H22        13.9781    1.6002    0.8251 H         1 <0>         0.0911
     49 H23        13.9113    1.7558   -0.9637 H         1 <0>         0.0852
     50 H24        14.5807    3.9129    1.1190 H         1 <0>         0.0813
     51 H25        15.4110    3.5670   -0.4350 H         1 <0>         0.0889
     52 H26        13.4413    5.5199   -0.1371 H         1 <0>         0.0734
     53 H27        13.8048    4.7027   -1.6814 H         1 <0>         0.0736
     54 H28         5.2710    3.2643   -1.7255 H         1 <0>         0.4355
@<TRIPOS>BOND
     1    1    6 ar
     2    1    2 ar
     3    1   31 1
     4    2    3 ar
     5    2   32 1
     6    3    4 ar
     7    3   33 1
     8    4    9 1
     9    4    5 ar
    10    5    6 ar
    11    5    7 1
    12    6   34 1
    13    7    8 1
    14    7   35 1
    15    7   36 1
    16    8    9 1
    17    8   37 1
    18    8   38 1
    19    9   10 1
    20    9   11 1
    21   11   12 am
    22   11   39 1
    23   12   13 2
    24   12   14 1
    25   14   15 1
    26   14   19 1
    27   14   16 1
    28   16   17 1
    29   16   40 1
    30   16   41 1
    31   17   18 1
    32   17   42 1
    33   17   54 1
    34   18   19 1
    35   18   43 1
    36   18   44 1
    37   19   20 1
    38   19   21 1
    39   21   22 2
    40   21   23 am
    41   23   24 1
    42   23   45 1
    43   24   25 1
    44   24   46 1
    45   24   47 1
    46   25   26 1
    47   25   30 1
    48   25   27 1
    49   27   28 1
    50   27   48 1
    51   27   49 1
    52   28   29 1
    53   28   50 1
    54   28   51 1
    55   29   30 1
    56   29   52 1
    57   29   53 1
@<TRIPOS>MOLECULE
ZINC58131949
   52    54     0     0     0
SMALL
USER_CHARGES

@<TRIPOS>ATOM
      1 C1          0.2391    1.7282   -0.1152 C.3       1 <0>        -0.1285
      2 C2          1.7736    1.9033    0.0022 C.3       1 <0>        -0.1214
      3 C3          2.3175    0.7506   -0.8779 C.3       1 <0>        -0.1443
      4 C4          1.3534   -0.4220   -0.6038 C.3       1 <0>         0.0404
      5 C5          0.0319    0.1995   -0.1188 C.3       1 <0>        -0.1357
      6 C6          1.9323   -1.3341    0.4797 C.3       1 <0>         0.1077
      7 N1          3.1523   -1.9727   -0.0201 N.am      1 <0>        -0.7496
      8 C7          3.8383   -2.8246    0.7674 C.2       1 <0>         0.5183
      9 O1          3.4455   -3.0625    1.8899 O.2       1 <0>        -0.5064
     10 C8          5.0933   -3.4815    0.2532 C.3       1 <0>         0.1222
     11 N2          5.6476   -4.3549    1.2907 N.am      1 <0>        -0.7405
     12 C9          6.7774   -5.0503    1.0533 C.2       1 <0>         0.7136
     13 O2          7.3367   -4.9528   -0.0219 O.2       1 <0>        -0.5855
     14 N3          7.2873   -5.8537    2.0077 N.am      1 <0>        -0.7112
     15 C10         8.5154   -6.6096    1.7496 C.3       1 <0>         0.0930
     16 C11         8.5528   -8.0716    2.1992 C.3       1 <0>        -0.1923
     17 C12         9.3612   -7.0170    2.9577 C.3       1 <0>        -0.1874
     18 N4          1.1270   -1.1864   -1.8377 N.4       1 <0>        -0.3825
     19 C13         0.4771   -0.3222   -2.8250 C.3       1 <0>        -0.0215
     20 C14         0.5672   -0.9611   -4.2159 C.3       1 <0>        -0.1269
     21 S1         -0.3274   -2.5457   -4.1748 S.3       1 <0>        -0.1849
     22 C15         0.3609   -3.3535   -2.6961 C.3       1 <0>        -0.1252
     23 C16         0.3016   -2.3567   -1.5325 C.3       1 <0>        -0.0246
     24 H1         -0.2629    2.1792    0.7407 H         1 <0>         0.0929
     25 H2         -0.1245    2.1647   -1.0455 H         1 <0>         0.0805
     26 H3          2.0835    2.8706   -0.3933 H         1 <0>         0.0935
     27 H4          2.0978    1.7857    1.0363 H         1 <0>         0.0859
     28 H5          2.2895    1.0292   -1.9314 H         1 <0>         0.0946
     29 H6          3.3322    0.4882   -0.5786 H         1 <0>         0.1023
     30 H7         -0.1970   -0.1486    0.8884 H         1 <0>         0.1086
     31 H8         -0.7773   -0.0660   -0.7991 H         1 <0>         0.0919
     32 H9          2.1680   -0.7429    1.3646 H         1 <0>         0.1197
     33 H10         1.2012   -2.1000    0.7386 H         1 <0>         0.1004
     34 H11         3.4665   -1.7825   -0.9179 H         1 <0>         0.3976
     35 H12         4.8576   -4.0728   -0.6316 H         1 <0>         0.1023
     36 H13         5.8244   -2.7157   -0.0057 H         1 <0>         0.1049
     37 H14         5.2014   -4.4326    2.1485 H         1 <0>         0.4096
     38 H15         6.8412   -5.9315    2.8655 H         1 <0>         0.4005
     39 H16         9.0419   -6.3517    0.8307 H         1 <0>         0.1413
     40 H17         7.6637   -8.4710    2.6870 H         1 <0>         0.0975
     41 H18         9.1038   -8.7758    1.5759 H         1 <0>         0.1060
     42 H19        10.4441   -7.0276    2.8334 H         1 <0>         0.1077
     43 H20         9.0039   -6.7227    3.9445 H         1 <0>         0.0985
     44 H21        -0.5705   -0.1881   -2.5552 H         1 <0>         0.1473
     45 H22         0.9732    0.6482   -2.8394 H         1 <0>         0.1489
     46 H23         0.1116   -0.3008   -4.9539 H         1 <0>         0.1563
     47 H24         1.6119   -1.1354   -4.4733 H         1 <0>         0.1108
     48 H25        -0.2280   -4.2379   -2.4527 H         1 <0>         0.1556
     49 H26         1.3959   -3.6402   -2.8821 H         1 <0>         0.1101
     50 H27         0.6727   -2.8354   -0.6263 H         1 <0>         0.1468
     51 H28        -0.7303   -2.0417   -1.3777 H         1 <0>         0.1469
     52 H29         2.0155   -1.4947   -2.2032 H         1 <0>         0.4140
@<TRIPOS>BOND
     1    1    5 1
     2    1    2 1
     3    1   24 1
     4    1   25 1
     5    2    3 1
     6    2   26 1
     7    2   27 1
     8    3    4 1
     9    3   28 1
    10    3   29 1
    11    4    5 1
    12    4    6 1
    13    4   18 1
    14    5   30 1
    15    5   31 1
    16    6    7 1
    17    6   32 1
    18    6   33 1
    19    7    8 am
    20    7   34 1
    21    8    9 2
    22    8   10 1
    23   10   11 1
    24   10   35 1
    25   10   36 1
    26   11   12 am
    27   11   37 1
    28   12   13 2
    29   12   14 am
    30   14   15 1
    31   14   38 1
    32   15   17 1
    33   15   16 1
    34   15   39 1
    35   16   17 1
    36   16   40 1
    37   16   41 1
    38   17   42 1
    39   17   43 1
    40   18   23 1
    41   18   19 1
    42   18   52 1
    43   19   20 1
    44   19   44 1
    45   19   45 1
    46   20   21 1
    47   20   46 1
    48   20   47 1
    49   21   22 1
    50   22   23 1
    51   22   48 1
    52   22   49 1
    53   23   50 1
    54   23   51 1
@<TRIPOS>MOLECULE
ZINC63842800
   52    54     0     0     0
SMALL
USER_CHARGES

@<TRIPOS>ATOM
      1 C1         -0.0187    1.5258    0.0104 C.3       1 <0>        -0.1491
      2 C2          0.0021   -0.0041    0.0020 C.3       1 <0>        -0.1107
      3 H1          0.5122   -0.3561   -0.8946 H         1 <0>         0.0804
      4 C3         -1.4334   -0.5345    0.0145 C.3       1 <0>        -0.1125
      5 C4         -1.4142   -2.0642   -0.0270 C.3       1 <0>        -0.1089
      6 H2         -2.4371   -2.4406   -0.0417 H         1 <0>         0.0878
      7 C5         -0.6916   -2.5957    1.2148 C.3       1 <0>         0.1162
      8 N1          0.6392   -1.9773    1.2884 N.am      1 <0>        -0.6076
      9 C6          0.7415   -0.5122    1.2437 C.3       1 <0>         0.1052
     10 C7          1.7456   -2.7395    1.3950 C.2       1 <0>         0.5007
     11 O1          1.6484   -3.9479    1.4309 O.2       1 <0>        -0.4843
     12 C8          3.1035   -2.0902    1.4695 C.3       1 <0>         0.1609
     13 H3          3.1415   -1.2472    0.7796 H         1 <0>         0.1203
     14 C9          3.3542   -1.5943    2.8950 C.3       1 <0>        -0.1129
     15 C10         4.6566   -0.8377    2.9420 C.2       1 <0>         0.0817
     16 C11         4.8238    0.5005    2.8388 C.ar      1 <0>        -0.1752
     17 C12         3.8795    1.6095    2.6578 C.ar      1 <0>        -0.0144
     18 C13         4.3570    2.8729    2.5877 C.ar      1 <0>        -0.1488
     19 C14         5.7279    3.1490    2.6829 C.ar      1 <0>         0.0533
     20 C15         6.6564    2.1835    2.8498 C.ar      1 <0>        -0.2080
     21 C16         6.2663    0.8186    2.9370 C.ar      1 <0>         0.3278
     22 N2          6.9637   -0.2802    3.0948 N.pl3     1 <0>        -0.5853
     23 C17         6.0408   -1.4204    3.1205 C.3       1 <0>         0.0612
     24 N3          4.1325   -3.0669    1.1042 N.am      1 <0>        -0.7457
     25 C18         4.2728   -4.1986    1.8227 C.2       1 <0>         0.7050
     26 O2          3.5454   -4.4088    2.7740 O.2       1 <0>        -0.5543
     27 N4          5.2195   -5.0971    1.4866 N.am      1 <0>        -0.8648
     28 C19        -0.6799   -2.5317   -1.2853 C.3       1 <0>        -0.1450
     29 H4          1.0039    1.9031    0.0027 H         1 <0>         0.0545
     30 H5         -0.5459    1.8868   -0.8726 H         1 <0>         0.0647
     31 H6         -0.5289    1.8773    0.9072 H         1 <0>         0.0602
     32 H7         -1.9355   -0.2021    0.9231 H         1 <0>         0.0681
     33 H8         -1.9686   -0.1542   -0.8556 H         1 <0>         0.0715
     34 H9         -1.2630   -2.3406    2.1072 H         1 <0>         0.0726
     35 H10        -0.5879   -3.6783    1.1418 H         1 <0>         0.0958
     36 H11         1.7902   -0.2201    1.1896 H         1 <0>         0.0732
     37 H12         0.2874   -0.0872    2.1389 H         1 <0>         0.0778
     38 H13         2.5404   -0.9360    3.1991 H         1 <0>         0.1213
     39 H14         3.4045   -2.4466    3.5726 H         1 <0>         0.1433
     40 H15         2.8191    1.4195    2.5814 H         1 <0>         0.1591
     41 H16         3.6640    3.6904    2.4546 H         1 <0>         0.1585
     42 H17         6.0549    4.1764    2.6199 H         1 <0>         0.1610
     43 H18         7.7011    2.4488    2.9171 H         1 <0>         0.1603
     44 H19         6.1091   -1.9403    4.0761 H         1 <0>         0.1746
     45 H20         6.2689   -2.1042    2.3029 H         1 <0>         0.1663
     46 H21         4.7128   -2.8992    0.3453 H         1 <0>         0.4045
     47 H22         5.7998   -4.9294    0.7277 H         1 <0>         0.3970
     48 H23         5.3205   -5.9116    2.0037 H         1 <0>         0.4220
     49 H24         0.3432   -2.1560   -1.2696 H         1 <0>         0.0518
     50 H25        -0.6665   -3.6212   -1.3144 H         1 <0>         0.0557
     51 H26        -1.1933   -2.1509   -2.1682 H         1 <0>         0.0578
     52 H27         7.9283   -0.3305    3.1836 H         1 <0>         0.4555
@<TRIPOS>BOND
     1    1    2 1
     2    1   29 1
     3    1   30 1
     4    1   31 1
     5    2    3 1
     6    2    9 1
     7    2    4 1
     8    4    5 1
     9    4   32 1
    10    4   33 1
    11    5    6 1
    12    5    7 1
    13    5   28 1
    14    7    8 1
    15    7   34 1
    16    7   35 1
    17    8    9 1
    18    8   10 am
    19    9   36 1
    20    9   37 1
    21   10   11 2
    22   10   12 1
    23   12   13 1
    24   12   14 1
    25   12   24 1
    26   14   15 1
    27   14   38 1
    28   14   39 1
    29   15   23 1
    30   15   16 2
    31   16   21 ar
    32   16   17 ar
    33   17   18 ar
    34   17   40 1
    35   18   19 ar
    36   18   41 1
    37   19   20 ar
    38   19   42 1
    39   20   21 ar
    40   20   43 1
    41   21   22 2
    42   22   23 1
    43   22   52 1
    44   23   44 1
    45   23   45 1
    46   24   25 am
    47   24   46 1
    48   25   26 2
    49   25   27 am
    50   27   47 1
    51   27   48 1
    52   28   49 1
    53   28   50 1
    54   28   51 1
@<TRIPOS>MOLECULE
ZINC02208345
   44    47     0     0     0
SMALL
USER_CHARGES
2-amino-4-(4-hydroxyphenyl)-8-[(4-hydroxyphenyl)methylene]-9-oxo-7-thia-1-azabicyclo[4.3.0]nona-2,5-diene-3,5-dicarbonitrile
@<TRIPOS>ATOM
      1 C1         -0.0225    1.1753   -0.8764 C.ar      1 <0>        -0.0565
      2 C2         -1.2185    1.8413   -0.7308 C.ar      1 <0>        -0.1492
      3 C3         -1.2424    3.1227   -0.1924 C.ar      1 <0>         0.1403
      4 C4         -0.0591    3.7436    0.1903 C.ar      1 <0>        -0.1432
      5 C5          1.1433    3.0892    0.0439 C.ar      1 <0>        -0.0719
      6 C6          1.1727    1.7957   -0.4921 C.ar      1 <0>        -0.1115
      7 C7          2.4520    1.0926   -0.6502 C.2       1 <0>         0.0885
      8 C8          3.6189    1.7849   -0.5938 C.2       1 <0>        -0.2289
      9 C9          4.9977    1.2854   -0.5706 C.2       1 <0>         0.5587
     10 O1          5.2278    0.0908   -0.6030 O.2       1 <0>        -0.4674
     11 N1          6.0043    2.1802   -0.5129 N.am      1 <0>        -0.4985
     12 C10         5.6691    3.5201   -0.4792 C.2       1 <0>         0.1165
     13 C11         6.5701    4.5333   -0.4203 C.2       1 <0>        -0.0216
     14 C12         8.0447    4.1833   -0.3885 C.3       1 <0>         0.0906
     15 H1          8.5240    4.6606   -1.2432 H         1 <0>         0.1089
     16 C13         8.3708    2.7041   -0.4271 C.2       1 <0>        -0.1980
     17 C14         7.3550    1.8150   -0.4857 C.2       1 <0>         0.4669
     18 N2          7.6656    0.4772   -0.5202 N.pl3     1 <0>        -0.8500
     19 C15         9.7308    2.2565   -0.4014 C.1       1 <0>         0.2784
     20 N3         10.8097    1.9014   -0.3809 N.1       1 <0>        -0.4212
     21 C16         8.6402    4.7648    0.8678 C.ar      1 <0>        -0.1014
     22 C17         8.2441    4.2883    2.1039 C.ar      1 <0>        -0.0818
     23 C18         8.7927    4.8158    3.2569 C.ar      1 <0>        -0.1435
     24 C19         9.7330    5.8324    3.1741 C.ar      1 <0>         0.1103
     25 C20        10.1245    6.3126    1.9328 C.ar      1 <0>        -0.1422
     26 C21         9.5775    5.7776    0.7826 C.ar      1 <0>        -0.0887
     27 O2         10.2694    6.3574    4.3071 O.3       1 <0>        -0.4997
     28 C22         6.1388    5.8984   -0.3881 C.1       1 <0>         0.2589
     29 N4          5.7966    6.9813   -0.3625 N.1       1 <0>        -0.3796
     30 S1          3.8885    3.5488   -0.5359 S.3       1 <0>         0.0710
     31 O3         -2.4255    3.7726   -0.0454 O.3       1 <0>        -0.4962
     32 H2         -0.0056    0.1779   -1.2903 H         1 <0>         0.1410
     33 H3         -2.1404    1.3657   -1.0313 H         1 <0>         0.1400
     34 H4         -0.0830    4.7411    0.6035 H         1 <0>         0.1400
     35 H5          2.0621    3.5726    0.3416 H         1 <0>         0.1369
     36 H6          2.4649    0.0247   -0.8113 H         1 <0>         0.1664
     37 H7          7.0619   -0.1501   -0.9479 H         1 <0>         0.4182
     38 H8          8.4887    0.1598   -0.1167 H         1 <0>         0.4155
     39 H9          7.5083    3.5004    2.1680 H         1 <0>         0.1224
     40 H10         8.4860    4.4405    4.2220 H         1 <0>         0.1295
     41 H11        10.8567    7.1038    1.8657 H         1 <0>         0.1308
     42 H12         9.8820    6.1511   -0.1839 H         1 <0>         0.1298
     43 H13         9.7774    7.1099    4.6631 H         1 <0>         0.3920
     44 H14        -2.6832    4.2992   -0.8145 H         1 <0>         0.3994
@<TRIPOS>BOND
     1    1    6 ar
     2    1    2 ar
     3    1   32 1
     4    2    3 ar
     5    2   33 1
     6    3    4 ar
     7    3   31 1
     8    4    5 ar
     9    4   34 1
    10    5    6 ar
    11    5   35 1
    12    6    7 1
    13    7    8 2
    14    7   36 1
    15    8   30 1
    16    8    9 1
    17    9   10 2
    18    9   11 am
    19   11   17 1
    20   11   12 1
    21   12   13 2
    22   12   30 1
    23   13   14 1
    24   13   28 1
    25   14   15 1
    26   14   16 1
    27   14   21 1
    28   16   17 2
    29   16   19 1
    30   17   18 1
    31   18   37 1
    32   18   38 1
    33   19   20 3
    34   21   26 ar
    35   21   22 ar
    36   22   23 ar
    37   22   39 1
    38   23   24 ar
    39   23   40 1
    40   24   25 ar
    41   24   27 1
    42   25   26 ar
    43   25   41 1
    44   26   42 1
    45   27   43 1
    46   28   29 3
    47   31   44 1
@<TRIPOS>MOLECULE
ZINC06907293
   43    45     0     0     0
SMALL
USER_CHARGES
(4R)-5-cyano-6-[2-(cyclopropylamino)-2-oxo-ethyl]sulfanyl-4-(2-furyl)-2-methyl-1,4-dihydropyridine-3-carboxamide
@<TRIPOS>ATOM
      1 C1         -0.2928   -4.3173   -2.2414 C.3       1 <0>        -0.1319
      2 C2          0.4419   -3.7332   -1.0623 C.2       1 <0>         0.1797
      3 C3          1.0993   -2.5717   -1.2034 C.2       1 <0>        -0.2430
      4 C4          1.8553   -1.9485   -0.0652 C.3       1 <0>         0.1405
      5 H1          2.9292   -2.1327   -0.2161 H         1 <0>         0.1161
      6 C5          1.4450   -2.5570    1.2458 C.2       1 <0>        -0.1251
      7 C6          0.7649   -3.7337    1.2953 C.2       1 <0>         0.1690
      8 N1          0.4273   -4.3947    0.1354 N.pl3     1 <0>        -0.6518
      9 S1          0.3120   -4.4171    2.8549 S.3       1 <0>         0.0429
     10 C7         -0.5336   -5.9203    2.3057 C.3       1 <0>        -0.1817
     11 C8         -1.0221   -6.6890    3.5064 C.2       1 <0>         0.5371
     12 O1         -0.8186   -6.2625    4.6234 O.2       1 <0>        -0.5184
     13 N2         -1.6852   -7.8503    3.3389 N.am      1 <0>        -0.7252
     14 C9         -2.1600   -8.5976    4.5061 C.3       1 <0>        -0.0225
     15 C10        -1.9499  -10.1131    4.5080 C.3       1 <0>        -0.1424
     16 C11        -3.3529   -9.5349    4.3074 C.3       1 <0>        -0.1354
     17 C12         1.7759   -1.8850    2.4662 C.1       1 <0>         0.2562
     18 N3          2.0384   -1.3519    3.4344 N.1       1 <0>        -0.4046
     19 C13         1.5736   -0.4684   -0.0345 C.2       1 <0>        -0.0151
     20 C14         2.4948    0.5094   -0.1046 C.2       1 <0>        -0.1926
     21 C15         1.7953    1.7364   -0.0416 C.2       1 <0>        -0.2106
     22 C16         0.4885    1.4351    0.0633 C.2       1 <0>        -0.0396
     23 O2          0.3602    0.0982    0.0670 O.3       1 <0>        -0.1663
     24 C17         1.0792   -1.9163   -2.4583 C.2       1 <0>         0.5898
     25 O3          2.0440   -1.9871   -3.1977 O.2       1 <0>        -0.5446
     26 N4         -0.0080   -1.2140   -2.8344 N.am      1 <0>        -0.8709
     27 H2         -0.1729   -3.6561   -3.1123 H         1 <0>         0.0918
     28 H3         -1.3612   -4.4121   -1.9973 H         1 <0>         0.0860
     29 H4          0.1195   -5.3100   -2.4752 H         1 <0>         0.0854
     30 H5          0.1454   -5.4573    0.1734 H         1 <0>         0.4376
     31 H6         -1.3900   -5.6482    1.6712 H         1 <0>         0.1282
     32 H7          0.1655   -6.5448    1.7301 H         1 <0>         0.1250
     33 H8         -1.8699   -8.2370    2.3258 H         1 <0>         0.4089
     34 H9         -1.9108   -7.7609    5.1753 H         1 <0>         0.1585
     35 H10        -1.2576  -10.3883    3.6987 H         1 <0>         0.1047
     36 H11        -1.5259  -10.4233    5.4744 H         1 <0>         0.1109
     37 H12        -4.0883   -9.3673    5.1081 H         1 <0>         0.1115
     38 H13        -3.8200   -9.3323    3.3323 H         1 <0>         0.1046
     39 H14         3.5636    0.3816   -0.1917 H         1 <0>         0.1469
     40 H15         2.2273    2.7258   -0.0718 H         1 <0>         0.1476
     41 H16        -0.3206    2.1475    0.1286 H         1 <0>         0.2020
     42 H17        -0.0237   -0.7048   -3.8093 H         1 <0>         0.4208
     43 H18        -0.8796   -1.1500   -2.1664 H         1 <0>         0.4199
@<TRIPOS>BOND
     1    1    2 1
     2    1   27 1
     3    1   28 1
     4    1   29 1
     5    2    8 1
     6    2    3 2
     7    3    4 1
     8    3   24 1
     9    4    5 1
    10    4    6 1
    11    4   19 1
    12    6    7 2
    13    6   17 1
    14    7    8 1
    15    7    9 1
    16    8   30 1
    17    9   10 1
    18   10   11 1
    19   10   31 1
    20   10   32 1
    21   11   12 2
    22   11   13 am
    23   13   14 1
    24   13   33 1
    25   14   16 1
    26   14   15 1
    27   14   34 1
    28   15   16 1
    29   15   35 1
    30   15   36 1
    31   16   37 1
    32   16   38 1
    33   17   18 3
    34   19   23 1
    35   19   20 2
    36   20   21 1
    37   20   39 1
    38   21   22 2
    39   21   40 1
    40   22   23 1
    41   22   41 1
    42   24   25 2
    43   24   26 am
    44   26   42 1
    45   26   43 1
@<TRIPOS>MOLECULE
ZINC38556254
   40    42     0     0     0
SMALL
USER_CHARGES

@<TRIPOS>ATOM
      1 C1         -0.0184    1.5028    0.0103 C.3       1 <0>        -0.0926
      2 C2          0.0021   -0.0041    0.0020 C.2       1 <0>        -0.0128
      3 C3         -1.0863   -0.7768    0.0030 C.2       1 <0>        -0.1895
      4 C4         -0.5311   -2.1901   -0.0073 C.3       1 <0>        -0.0113
      5 H1         -0.8370   -2.7309    0.8883 H         1 <0>         0.1484
      6 N1          0.9257   -1.9734   -0.0130 N.2       1 <0>        -0.1017
      7 N2          1.1248   -0.7562   -0.0132 N.2       1 <0>        -0.1672
      8 C5         -0.9759   -2.9370   -1.2664 C.3       1 <0>         0.2196
      9 H2         -2.0613   -2.9082   -1.3625 H         1 <0>         0.0636
     10 N3         -0.3313   -2.3537   -2.4721 N.3       1 <0>        -0.4655
     11 N4         -0.3663   -3.4637   -3.4373 N.3       1 <0>        -0.4811
     12 C6         -0.1026   -4.6713   -2.6222 C.3       1 <0>         0.2462
     13 H3          0.9569   -4.9244   -2.6615 H         1 <0>         0.1640
     14 N5         -0.4953   -4.3377   -1.2351 N.3       1 <0>        -0.3525
     15 N6         -1.5341   -5.2344   -0.7545 N.3       1 <0>        -0.6990
     16 S1         -1.0964   -6.0614   -3.2307 S.3       1 <0>        -0.1554
     17 C7         -2.8062   -5.4706   -3.0961 C.3       1 <0>        -0.1687
     18 C8         -3.7481   -6.5446   -3.5763 C.2       1 <0>         0.4150
     19 O1         -3.3092   -7.6040   -3.9705 O.2       1 <0>        -0.4171
     20 C9         -5.1998   -6.3076   -3.5669 C.ar      1 <0>        -0.1464
     21 C10        -5.7093   -5.0842   -3.1182 C.ar      1 <0>        -0.0581
     22 C11        -7.0703   -4.8685   -3.1124 C.ar      1 <0>        -0.1087
     23 C12        -7.9345   -5.8597   -3.5491 C.ar      1 <0>        -0.0024
     24 C13        -7.4374   -7.0749   -3.9947 C.ar      1 <0>        -0.0428
     25 C14        -6.0768   -7.3022   -4.0119 C.ar      1 <0>        -0.0384
     26 Cl1        -8.5289   -8.3101   -4.5391 Cl        1 <0>        -0.0324
     27 Cl2        -9.6476   -5.5789   -3.5375 Cl        1 <0>        -0.0323
     28 H4          1.0042    1.8801    0.0026 H         1 <0>         0.0814
     29 H5         -0.5455    1.8639   -0.8728 H         1 <0>         0.0793
     30 H6         -0.5286    1.8543    0.9071 H         1 <0>         0.0787
     31 H7         -2.1213   -0.4684    0.0099 H         1 <0>         0.1683
     32 H8         -0.8537   -1.5609   -2.8137 H         1 <0>         0.3529
     33 H9         -1.2668   -3.5218   -3.8890 H         1 <0>         0.3172
     34 H10        -1.2067   -6.1886   -0.7332 H         1 <0>         0.3811
     35 H11        -1.8689   -4.9466    0.1528 H         1 <0>         0.3535
     36 H12        -3.0274   -5.2320   -2.0558 H         1 <0>         0.1538
     37 H13        -2.9312   -4.5774   -3.7082 H         1 <0>         0.1011
     38 H14        -5.0373   -4.3107   -2.7768 H         1 <0>         0.1434
     39 H15        -7.4645   -3.9245   -2.7662 H         1 <0>         0.1518
     40 H16        -5.6901   -8.2472   -4.3637 H         1 <0>         0.1567
@<TRIPOS>BOND
     1    1    2 1
     2    1   28 1
     3    1   29 1
     4    1   30 1
     5    2    7 1
     6    2    3 2
     7    3    4 1
     8    3   31 1
     9    4    5 1
    10    4    6 1
    11    4    8 1
    12    6    7 2
    13    8    9 1
    14    8   14 1
    15    8   10 1
    16   10   11 1
    17   10   32 1
    18   11   12 1
    19   11   33 1
    20   12   13 1
    21   12   14 1
    22   12   16 1
    23   14   15 1
    24   15   34 1
    25   15   35 1
    26   16   17 1
    27   17   18 1
    28   17   36 1
    29   17   37 1
    30   18   19 2
    31   18   20 1
    32   20   25 ar
    33   20   21 ar
    34   21   22 ar
    35   21   38 1
    36   22   23 ar
    37   22   39 1
    38   23   24 ar
    39   23   27 1
    40   24   25 ar
    41   24   26 1
    42   25   40 1
@<TRIPOS>MOLECULE
ZINC15053811
   41    44     0     0     0
SMALL
USER_CHARGES

@<TRIPOS>ATOM
      1 C1          0.3819    1.0514    2.0084 C.ar      1 <0>        -0.1302
      2 C2          1.5781    1.7534    1.9718 C.ar      1 <0>        -0.0971
      3 C3          2.7612    1.1097    1.6820 C.ar      1 <0>        -0.1202
      4 C4          2.7624   -0.2573    1.4228 C.ar      1 <0>         0.0865
      5 C5          1.5510   -0.9660    1.4602 C.ar      1 <0>        -0.0767
      6 C6          0.3625   -0.3025    1.7545 C.ar      1 <0>        -0.0771
      7 C7          1.8908   -2.3668    1.1465 C.2       1 <0>        -0.1957
      8 C8          3.2422   -2.4020    0.9482 C.2       1 <0>         0.1248
      9 N1          3.7607   -1.1570    1.1107 N.pl3     1 <0>        -0.5745
     10 H1          4.6998   -0.9323    1.0196 H         1 <0>         0.4243
     11 C9          0.9634   -3.4962    1.0647 C.2       1 <0>         0.1395
     12 C10         1.3370   -4.6383    0.4267 C.2       1 <0>        -0.2401
     13 C11         0.6471   -5.8823    0.3258 C.2       1 <0>         0.5657
     14 O1         -0.4391   -6.0377    0.8543 O.2       1 <0>        -0.4835
     15 N2          1.2146   -6.8625   -0.3555 N.am      1 <0>        -0.5172
     16 C12         2.4499   -6.6674   -0.9502 C.2       1 <0>         0.4254
     17 N3          3.1606   -7.5045   -1.6552 N.2       1 <0>        -0.6380
     18 S1          2.8186   -4.9750   -0.5138 S.3       1 <0>        -0.0835
     19 C13         0.5666   -8.0989   -0.4757 C.ar      1 <0>         0.1882
     20 C14         0.6828   -9.0461    0.5330 C.ar      1 <0>        -0.1159
     21 C15         0.0424  -10.2638    0.4118 C.ar      1 <0>        -0.0068
     22 C16        -0.7138  -10.5401   -0.7124 C.ar      1 <0>        -0.6671
     23 C17        -0.8314   -9.5989   -1.7186 C.ar      1 <0>        -0.0067
     24 C18        -0.1977   -8.3773   -1.6009 C.ar      1 <0>        -0.1154
     25 S2         -1.5287  -12.0950   -0.8635 S.o2      1 <0>         2.7036
     26 O2         -1.7256  -12.3171   -2.2532 O.2       1 <0>        -0.9593
     27 O3         -0.8172  -13.0082   -0.0394 O.2       1 <0>        -0.9595
     28 N4         -3.0336  -11.9263   -0.1933 N.pl3     1 <0>        -1.2491
     29 H2         -0.5376    1.5678    2.2413 H         1 <0>         0.1290
     30 H3          1.5818    2.8147    2.1721 H         1 <0>         0.1305
     31 H4          3.6867    1.6657    1.6558 H         1 <0>         0.1249
     32 H5         -0.5699   -0.8468    1.7835 H         1 <0>         0.1281
     33 H6          3.8118   -3.2855    0.7003 H         1 <0>         0.1834
     34 H7         -0.0174   -3.4230    1.5108 H         1 <0>         0.1611
     35 H8          4.0184   -7.2295   -2.0148 H         1 <0>         0.3770
     36 H9          1.2735   -8.8310    1.4111 H         1 <0>         0.1376
     37 H10         0.1327  -11.0011    1.1958 H         1 <0>         0.1529
     38 H11        -1.4224   -9.8177   -2.5956 H         1 <0>         0.1529
     39 H12        -0.2933   -7.6410   -2.3852 H         1 <0>         0.1379
     40 H13        -3.3039  -11.0744    0.1837 H         1 <0>         0.4179
     41 H14        -3.6448  -12.6793   -0.1776 H         1 <0>         0.4224
@<TRIPOS>BOND
     1    1    6 ar
     2    1    2 ar
     3    1   29 1
     4    2    3 ar
     5    2   30 1
     6    3    4 ar
     7    3   31 1
     8    4    9 1
     9    4    5 ar
    10    5    6 ar
    11    5    7 1
    12    6   32 1
    13    7    8 2
    14    7   11 1
    15    8    9 1
    16    8   33 1
    17    9   10 1
    18   11   12 2
    19   11   34 1
    20   12   18 1
    21   12   13 1
    22   13   14 2
    23   13   15 am
    24   15   16 1
    25   15   19 1
    26   16   17 2
    27   16   18 1
    28   17   35 1
    29   19   24 ar
    30   19   20 ar
    31   20   21 ar
    32   20   36 1
    33   21   22 ar
    34   21   37 1
    35   22   23 ar
    36   22   25 1
    37   23   24 ar
    38   23   38 1
    39   24   39 1
    40   25   26 2
    41   25   27 2
    42   25   28 1
    43   28   40 1
    44   28   41 1
@<TRIPOS>MOLECULE
ZINC58465075
   38    40     0     0     0
SMALL
USER_CHARGES

@<TRIPOS>ATOM
      1 C1         -0.0167    1.3779    0.0096 C.ar      1 <0>        -0.1136
      2 C2          1.1711    2.0854    0.0021 C.ar      1 <0>        -0.0197
      3 C3          2.3773    1.4107   -0.0130 C.ar      1 <0>        -0.1712
      4 C4          2.3960    0.0283   -0.0201 C.ar      1 <0>        -0.0389
      5 C5          1.2086   -0.6790   -0.0117 C.ar      1 <0>        -0.1912
      6 C6          0.0021   -0.0041    0.0020 C.ar      1 <0>        -0.0486
      7 C7          1.2291   -2.1858   -0.0204 C.3       1 <0>         0.5088
      8 F1          1.2492   -2.6596    1.2958 F         1 <0>        -0.1756
      9 F2          0.0864   -2.6639   -0.6707 F         1 <0>        -0.1741
     10 F3          2.3706   -2.6328   -0.6944 F         1 <0>        -0.1764
     11 C8          3.6720    2.1819   -0.0222 C.3       1 <0>         0.4232
     12 H1          3.9963    2.3643    1.0023 H         1 <0>         0.1473
     13 N1          4.6940    1.4154   -0.7307 N.pl3     1 <0>        -0.7398
     14 C9          4.6714    1.1979   -2.1057 C.ar      1 <0>         0.3535
     15 C10         5.3824    0.1180   -2.6268 C.ar      1 <0>        -0.2009
     16 C11         5.3939   -0.1145   -3.9872 C.ar      1 <0>         0.1333
     17 C12         4.7002    0.7231   -4.8437 C.ar      1 <0>        -0.7325
     18 C13         3.9873    1.7923   -4.3328 C.ar      1 <0>         0.1312
     19 C14         3.9677    2.0227   -2.9729 C.ar      1 <0>        -0.7354
     20 S1          3.0229    3.3673   -2.3219 S.o2      1 <0>         2.6851
     21 O1          3.4874    4.5487   -2.9606 O.2       1 <0>        -0.9407
     22 O2          1.6599    2.9662   -2.3442 O.2       1 <0>        -0.9303
     23 N2          3.4761    3.4706   -0.7167 N.pl3     1 <0>        -1.1134
     24 S2          4.7260    0.4279   -6.5806 S.o2      1 <0>         2.7014
     25 O3          4.4287   -0.9496   -6.7629 O.2       1 <0>        -0.9426
     26 O4          3.9539    1.4597   -7.1794 O.2       1 <0>        -0.9547
     27 N3          6.2860    0.6470   -7.0914 N.pl3     1 <0>        -1.2435
     28 Cl1         6.2812   -1.4627   -4.6266 Cl        1 <0>        -0.0171
     29 H2         -0.9591    1.9051    0.0259 H         1 <0>         0.1420
     30 H3          1.1565    3.1653    0.0076 H         1 <0>         0.1368
     31 H4          3.3385   -0.4989   -0.0326 H         1 <0>         0.1369
     32 H5         -0.9258   -0.5567    0.0079 H         1 <0>         0.1403
     33 H6          5.4257    1.0390   -0.2171 H         1 <0>         0.4226
     34 H7          5.9263   -0.5386   -1.9639 H         1 <0>         0.1557
     35 H8          3.4462    2.4478   -4.9990 H         1 <0>         0.1639
     36 H9          3.6049    4.3215   -0.2691 H         1 <0>         0.4353
     37 H10         6.6219    0.1475   -7.8520 H         1 <0>         0.4248
     38 H11         6.8637    1.2748   -6.6299 H         1 <0>         0.4181
@<TRIPOS>BOND
     1    1    6 ar
     2    1    2 ar
     3    1   29 1
     4    2    3 ar
     5    2   30 1
     6    3    4 ar
     7    3   11 1
     8    4    5 ar
     9    4   31 1
    10    5    6 ar
    11    5    7 1
    12    6   32 1
    13    7    8 1
    14    7    9 1
    15    7   10 1
    16   11   12 1
    17   11   23 1
    18   11   13 1
    19   13   14 1
    20   13   33 1
    21   14   19 ar
    22   14   15 ar
    23   15   16 ar
    24   15   34 1
    25   16   17 ar
    26   16   28 1
    27   17   18 ar
    28   17   24 1
    29   18   19 ar
    30   18   35 1
    31   19   20 1
    32   20   21 2
    33   20   22 2
    34   20   23 1
    35   23   36 1
    36   24   25 2
    37   24   26 2
    38   24   27 1
    39   27   37 1
    40   27   38 1
@<TRIPOS>MOLECULE
ZINC13066961
   42    43     0     0     0
SMALL
USER_CHARGES
5-[(2-dimethylamino-5-sulfamoyl-phenyl)sulfamoyl]-2-fluoro-benzoic acid
@<TRIPOS>ATOM
      1 C1         -0.6592    0.7308   -4.6676 C.3       1 <0>         0.0247
      2 N1         -1.6065   -0.2956   -4.2126 N.pl3     1 <0>        -0.5138
      3 C2         -2.5533   -0.6479   -5.2791 C.3       1 <0>         0.0243
      4 C3         -0.9314   -1.4300   -3.7460 C.ar      1 <0>         0.1311
      5 C4         -0.0906   -2.1361   -4.5927 C.ar      1 <0>        -0.1466
      6 C5          0.5755   -3.2559   -4.1297 C.ar      1 <0>        -0.0234
      7 C6          0.4059   -3.6750   -2.8231 C.ar      1 <0>        -0.6522
      8 C7         -0.4265   -2.9738   -1.9704 C.ar      1 <0>        -0.0735
      9 C8         -1.1025   -1.8528   -2.4279 C.ar      1 <0>         0.1689
     10 N2         -1.9497   -1.1440   -1.5675 N.pl3     1 <0>        -1.0415
     11 S1         -1.5629   -0.9918    0.0355 S.o2      1 <0>         2.6877
     12 O1         -1.3369   -2.3065    0.5253 O.2       1 <0>        -0.9486
     13 O2         -2.5312   -0.1223    0.6061 O.2       1 <0>        -0.9384
     14 C9         -0.0174   -0.1499    0.1208 C.ar      1 <0>        -0.7090
     15 C10         1.1635   -0.8730    0.1149 C.ar      1 <0>        -0.0019
     16 C11         2.3810   -0.2225    0.1814 C.ar      1 <0>        -0.1932
     17 C12         2.4274    1.1579    0.2546 C.ar      1 <0>         0.1909
     18 C13         1.2376    1.8935    0.2606 C.ar      1 <0>        -0.1690
     19 C14         0.0120    1.2262    0.1929 C.ar      1 <0>         0.0579
     20 C15         1.2768    3.3666    0.3374 C.2       1 <0>         0.4891
     21 O3          2.3444    3.9436    0.3962 O.co2     1 <0>        -0.6136
     22 F1          3.6177    1.7936    0.3202 F         1 <0>        -0.1091
     23 S2          1.2584   -5.1029   -2.2410 S.o2      1 <0>         2.6984
     24 O4          0.5092   -5.6034   -1.1422 O.2       1 <0>        -0.9517
     25 O5          1.5546   -5.8933   -3.3842 O.2       1 <0>        -0.9640
     26 N3          2.7102   -4.5914   -1.6303 N.pl3     1 <0>        -1.2497
     27 H1         -0.0495    0.3293   -5.4770 H         1 <0>         0.0351
     28 H2         -1.2100    1.6009   -5.0248 H         1 <0>         0.0818
     29 H3         -0.0150    1.0238   -3.8385 H         1 <0>         0.0780
     30 H4         -3.2862   -1.3572   -4.8947 H         1 <0>         0.0723
     31 H5         -3.0639    0.2514   -5.6234 H         1 <0>         0.0802
     32 H6         -2.0122   -1.0994   -6.1107 H         1 <0>         0.0345
     33 H7          0.0444   -1.8113   -5.6139 H         1 <0>         0.1370
     34 H8          1.2303   -3.8045   -4.7904 H         1 <0>         0.1466
     35 H9         -0.5535   -3.3015   -0.9492 H         1 <0>         0.1839
     36 H10        -2.7632   -0.7421   -1.9104 H         1 <0>         0.4354
     37 H11         1.1329   -1.9511    0.0582 H         1 <0>         0.1399
     38 H12         3.2980   -0.7931    0.1767 H         1 <0>         0.1432
     39 H13        -0.9105    1.7879    0.1925 H         1 <0>         0.1585
     40 H14         2.9379   -3.6486   -1.6460 H         1 <0>         0.4182
     41 H15         3.3329   -5.2346   -1.2568 H         1 <0>         0.4218
     42 O6          0.1288    4.0717    0.3425 O.co2     1 <0>        -0.7403
@<TRIPOS>BOND
     1    1    2 1
     2    1   27 1
     3    1   28 1
     4    1   29 1
     5    2    3 1
     6    2    4 1
     7    3   30 1
     8    3   31 1
     9    3   32 1
    10    4    9 ar
    11    4    5 ar
    12    5    6 ar
    13    5   33 1
    14    6    7 ar
    15    6   34 1
    16    7    8 ar
    17    7   23 1
    18    8    9 ar
    19    8   35 1
    20    9   10 1
    21   10   11 1
    22   10   36 1
    23   11   12 2
    24   11   13 2
    25   11   14 1
    26   14   19 ar
    27   14   15 ar
    28   15   16 ar
    29   15   37 1
    30   16   17 ar
    31   16   38 1
    32   17   18 ar
    33   17   22 1
    34   18   19 ar
    35   18   20 1
    36   19   39 1
    37   20   21 2
    38   20   42 1
    39   23   24 2
    40   23   25 2
    41   23   26 1
    42   26   40 1
    43   26   41 1
@<TRIPOS>MOLECULE
ZINC22055034
   44    45     0     0     0
SMALL
USER_CHARGES
(2S,3R,4R,5R,6S)-6-[2-(4-chlorophenoxy)-2-methyl-propanoyl]oxy-3,4,5-trihydroxy-tetrahydropyran-2-carboxylic acid
@<TRIPOS>ATOM
      1 C1          3.4271    3.1606   -1.2384 C.3       1 <0>        -0.1973
      2 C2          3.5748    1.6454   -1.0860 C.3       1 <0>         0.1294
      3 C3          4.6383    1.3404   -0.0292 C.3       1 <0>        -0.1368
      4 C4          2.2570    1.0527   -0.6581 C.2       1 <0>         0.4338
      5 O1          1.7114    0.2283   -1.3527 O.2       1 <0>        -0.4642
      6 O2          1.6893    1.4408    0.4947 O.3       1 <0>        -0.3324
      7 C5          0.4200    0.8279    0.8435 C.3       1 <0>         0.2763
      8 H1          0.5321   -0.2643    0.7769 H         1 <0>         0.0785
      9 C6         -0.0076    1.2969    2.2367 C.3       1 <0>         0.1241
     10 H2         -0.0237    2.3947    2.3042 H         1 <0>         0.0917
     11 C7         -1.3750    0.6938    2.5725 C.3       1 <0>         0.0998
     12 H3         -1.7165    0.9978    3.5730 H         1 <0>         0.0700
     13 C8         -2.3793    1.0986    1.4891 C.3       1 <0>         0.0746
     14 H4         -3.3807    0.6934    1.6963 H         1 <0>         0.0754
     15 C9         -1.8601    0.6373    0.1248 C.3       1 <0>         0.0353
     16 H5         -1.7238   -0.4536    0.0880 H         1 <0>         0.0705
     17 O3         -0.5719    1.2095   -0.1117 O.3       1 <0>        -0.3563
     18 C10        -2.8140    1.0835   -0.9531 C.2       1 <0>         0.4748
     19 O4         -2.4560    1.8862   -1.7822 O.co2     1 <0>        -0.6026
     20 O5         -4.0614    0.5893   -0.9922 O.co2     1 <0>        -0.7543
     21 O6         -2.5320    2.5194    1.4864 O.3       1 <0>        -0.5932
     22 O7         -1.2703   -0.7305    2.6214 O.3       1 <0>        -0.5814
     23 O8          0.9543    0.8662    3.2017 O.3       1 <0>        -0.5819
     24 O9          3.9691    1.0771   -2.3365 O.3       1 <0>        -0.2834
     25 C11         3.1346    1.2692   -3.3920 C.ar      1 <0>         0.1338
     26 C12         1.9081    1.8894   -3.2039 C.ar      1 <0>        -0.1668
     27 C13         1.0632    2.0876   -4.2787 C.ar      1 <0>        -0.0608
     28 C14         1.4355    1.6594   -5.5407 C.ar      1 <0>        -0.0675
     29 C15         2.6562    1.0358   -5.7294 C.ar      1 <0>        -0.0796
     30 C16         3.5059    0.8401   -4.6579 C.ar      1 <0>        -0.1417
     31 Cl1         0.3695    1.9042   -6.8887 Cl        1 <0>        -0.0758
     32 H6          2.6625    3.3799   -1.9982 H         1 <0>         0.0865
     33 H7          4.3890    3.5932   -1.5507 H         1 <0>         0.0855
     34 H8          3.1236    3.5981   -0.2758 H         1 <0>         0.0912
     35 H9          4.7445    0.2510    0.0804 H         1 <0>         0.0731
     36 H10         4.3348    1.7779    0.9333 H         1 <0>         0.0956
     37 H11         5.6002    1.7730   -0.3415 H         1 <0>         0.0840
     38 H12        -3.2174    2.9975    0.7711 H         1 <0>         0.4216
     39 H13        -2.1572   -1.3396    2.8503 H         1 <0>         0.4108
     40 H14         0.8148    1.1119    4.2648 H         1 <0>         0.4059
     41 H15         1.6156    2.2205   -2.2184 H         1 <0>         0.1375
     42 H16         0.1099    2.5738   -4.1333 H         1 <0>         0.1423
     43 H17         2.9448    0.7016   -6.7150 H         1 <0>         0.1368
     44 H18         4.4585    0.3531   -4.8056 H         1 <0>         0.1370
@<TRIPOS>BOND
     1    1    2 1
     2    1   32 1
     3    1   33 1
     4    1   34 1
     5    2    3 1
     6    2    4 1
     7    2   24 1
     8    3   35 1
     9    3   36 1
    10    3   37 1
    11    4    5 2
    12    4    6 1
    13    6    7 1
    14    7    8 1
    15    7   17 1
    16    7    9 1
    17    9   10 1
    18    9   11 1
    19    9   23 1
    20   11   12 1
    21   11   13 1
    22   11   22 1
    23   13   14 1
    24   13   15 1
    25   13   21 1
    26   15   16 1
    27   15   17 1
    28   15   18 1
    29   18   19 2
    30   18   20 1
    31   21   38 1
    32   22   39 1
    33   23   40 1
    34   24   25 1
    35   25   30 ar
    36   25   26 ar
    37   26   27 ar
    38   26   41 1
    39   27   28 ar
    40   27   42 1
    41   28   29 ar
    42   28   31 1
    43   29   30 ar
    44   29   43 1
    45   30   44 1
@<TRIPOS>MOLECULE
ZINC39355737
   44    46     0     0     0
SMALL
USER_CHARGES

@<TRIPOS>ATOM
      1 C1         -0.0511    2.3192   -0.6224 C.3       1 <0>        -0.1116
      2 C2         -0.0603    0.8369   -0.2432 C.3       1 <0>        -0.0252
      3 H1         -1.0777    0.4961   -0.0514 H         1 <0>         0.1524
      4 C3          0.5895    0.0007   -1.3313 C.2       1 <0>        -0.1691
      5 C4          1.6391   -0.5640   -0.7198 C.2       1 <0>         0.1690
      6 N1          1.7004   -0.1783    0.5778 N.2       1 <0>        -0.1917
      7 N2          0.7994    0.5938    0.9274 N.2       1 <0>        -0.1138
      8 O1          2.5205   -1.4080   -1.3181 O.3       1 <0>        -0.4441
      9 C5          0.1544   -0.1579   -2.7654 C.3       1 <0>         0.1186
     10 H2          0.8598   -0.8023   -3.2900 H         1 <0>         0.1110
     11 C6         -1.2190   -0.7768   -2.8082 C.ar      1 <0>        -0.0183
     12 C7         -2.2448   -0.2317   -2.0585 C.ar      1 <0>        -0.0889
     13 C8         -3.5064   -0.7958   -2.0943 C.ar      1 <0>        -0.0397
     14 C9         -3.7451   -1.9097   -2.8831 C.ar      1 <0>         0.1464
     15 C10        -2.7127   -2.4581   -3.6380 C.ar      1 <0>         0.1164
     16 C11        -1.4517   -1.8849   -3.6013 C.ar      1 <0>        -0.1317
     17 O2         -2.9420   -3.5513   -4.4137 O.3       1 <0>        -0.2952
     18 C12        -1.8355   -4.0599   -5.1614 C.3       1 <0>         0.0202
     19 O3         -4.9855   -2.4661   -2.9191 O.3       1 <0>        -0.4603
     20 N3         -4.6021   -0.2101   -1.2897 N.pl3     1 <0>         0.0361
     21 O4         -4.3937    0.7616   -0.6012 O.2       1 <0>        -0.1680
     22 O5         -5.7054   -0.7034   -1.3210 O.3       1 <0>        -0.1258
     23 C13         0.1174    1.1935   -3.4314 C.2       1 <0>        -0.2503
     24 H3         -2.8528    1.5232   -3.4492 H         1 <0>         0.3914
     25 C14         1.1566    2.0511   -3.5509 C.2       1 <0>         0.1246
     26 N4          0.7164    3.1448   -4.2076 N.pl3     1 <0>        -0.4524
     27 N5         -0.6397    2.9561   -4.5034 N.2       1 <0>        -0.2923
     28 C15        -0.9995    1.7825   -4.0428 C.2       1 <0>         0.2738
     29 O6         -2.2398    1.2331   -4.1386 O.3       1 <0>        -0.4543
     30 C16         2.5566    1.8257   -3.0408 C.3       1 <0>        -0.1055
     31 H4          0.9697    2.6316   -0.8425 H         1 <0>         0.0651
     32 H5         -0.6759    2.4730   -1.5022 H         1 <0>         0.0746
     33 H6         -0.4406    2.9089    0.2075 H         1 <0>         0.0826
     34 H7          3.2209   -1.7255   -0.7318 H         1 <0>         0.4107
     35 H8         -2.0600    0.6365   -1.4433 H         1 <0>         0.1535
     36 H9         -0.6497   -2.3061   -4.1894 H         1 <0>         0.1516
     37 H10        -1.0369   -4.3482   -4.4778 H         1 <0>         0.0616
     38 H11        -2.1542   -4.9300   -5.7354 H         1 <0>         0.1106
     39 H12        -1.4715   -3.2896   -5.8412 H         1 <0>         0.0620
     40 H13        -5.5603   -2.1016   -3.6061 H         1 <0>         0.4027
     41 H14         3.1503    1.3363   -3.8129 H         1 <0>         0.0903
     42 H15         3.0096    2.7842   -2.7871 H         1 <0>         0.0780
     43 H16         2.5226    1.1937   -2.1534 H         1 <0>         0.0875
     44 H17         1.2462    3.9249   -4.4349 H         1 <0>         0.4475
@<TRIPOS>BOND
     1    1    2 1
     2    1   31 1
     3    1   32 1
     4    1   33 1
     5    2    3 1
     6    2    7 1
     7    2    4 1
     8    4    5 2
     9    4    9 1
    10    5    6 1
    11    5    8 1
    12    6    7 2
    13    8   34 1
    14    9   10 1
    15    9   11 1
    16    9   23 1
    17   11   16 ar
    18   11   12 ar
    19   12   13 ar
    20   12   35 1
    21   13   14 ar
    22   13   20 1
    23   14   15 ar
    24   14   19 1
    25   15   16 ar
    26   15   17 1
    27   16   36 1
    28   17   18 1
    29   18   37 1
    30   18   38 1
    31   18   39 1
    32   19   40 1
    33   20   21 2
    34   20   22 1
    35   23   28 1
    36   23   25 2
    37   24   29 1
    38   25   30 1
    39   25   26 1
    40   26   27 1
    41   26   44 1
    42   27   28 2
    43   28   29 1
    44   30   41 1
    45   30   42 1
    46   30   43 1
@<TRIPOS>MOLECULE
ZINC08513443
   40    43     0     0     0
SMALL
USER_CHARGES

@<TRIPOS>ATOM
      1 C1         -0.0167    1.3779    0.0096 C.ar      1 <0>        -0.1184
      2 C2          1.1711    2.0854    0.0021 C.ar      1 <0>        -0.0543
      3 C3          2.3773    1.4107   -0.0130 C.ar      1 <0>        -0.0387
      4 C4          2.3961    0.0283   -0.0201 C.ar      1 <0>        -0.0427
      5 C5          1.2086   -0.6790   -0.0117 C.ar      1 <0>        -0.0467
      6 C6          0.0021   -0.0041    0.0020 C.ar      1 <0>        -0.0706
      7 N1          1.2287   -2.1590   -0.0202 N.pl3     1 <0>         0.0402
      8 O1          2.2838   -2.7492   -0.0346 O.2       1 <0>        -0.1634
      9 O2          0.1900   -2.7777   -0.0128 O.3       1 <0>        -0.1722
     10 C7          3.6720    2.1819   -0.0222 C.3       1 <0>         0.1148
     11 H1          4.4940    1.4662   -0.0337 H         1 <0>         0.0624
     12 C8          3.7569    2.9810    1.2578 C.2       1 <0>        -0.3533
     13 C9          3.7148    2.3701    2.5081 C.2       1 <0>         0.5080
     14 N2          3.7945    3.1242    3.6044 N.2       1 <0>        -0.5770
     15 C10         3.9129    4.4451    3.5202 C.2       1 <0>         0.5354
     16 S1          4.0120    5.3641    4.9612 S.2       1 <0>        -0.6695
     17 N3          3.9577    5.0814    2.3354 N.pl3     1 <0>        -0.5868
     18 H2          4.0445    6.0470    2.3058 H         1 <0>         0.4272
     19 C11         3.8804    4.3593    1.1638 C.2       1 <0>         0.4773
     20 N4          3.9253    4.9767   -0.0204 N.2       1 <0>        -0.6525
     21 C12         3.8620    4.3897   -1.1902 C.2       1 <0>         0.3276
     22 C13         3.7319    2.9968   -1.3024 C.2       1 <0>        -0.3971
     23 C14         3.6631    2.3806   -2.4931 C.2       1 <0>         0.3413
     24 O3          3.5400    1.0392   -2.5368 O.3       1 <0>        -0.6144
     25 C15         3.7202    3.1589   -3.7808 C.3       1 <0>        -0.1342
     26 C16         3.1371    4.5564   -3.5515 C.3       1 <0>        -0.1105
     27 C17         3.9290    5.2371   -2.4396 C.3       1 <0>        -0.0826
     28 N5          3.5915    1.0002    2.6113 N.pl3     1 <0>        -0.8216
     29 H3         -0.9591    1.9051    0.0259 H         1 <0>         0.1409
     30 H4          1.1565    3.1653    0.0076 H         1 <0>         0.1299
     31 H5          3.3385   -0.4989   -0.0326 H         1 <0>         0.1469
     32 H6         -0.9258   -0.5567    0.0082 H         1 <0>         0.1465
     33 H7          4.7563    3.2459   -4.1080 H         1 <0>         0.0871
     34 H8          3.1386    2.6425   -4.5445 H         1 <0>         0.0810
     35 H9          3.2195    5.1412   -4.4676 H         1 <0>         0.0753
     36 H10         2.0893    4.4720   -3.2631 H         1 <0>         0.0678
     37 H11         3.4936    6.2161   -2.2394 H         1 <0>         0.0879
     38 H12         4.9690    5.3556   -2.7439 H         1 <0>         0.0919
     39 H13         3.5336    0.4567    1.8099 H         1 <0>         0.4087
     40 H14         3.5627    0.5803    3.4852 H         1 <0>         0.4085
@<TRIPOS>BOND
     1    1    6 ar
     2    1    2 ar
     3    1   29 1
     4    2    3 ar
     5    2   30 1
     6    3    4 ar
     7    3   10 1
     8    4    5 ar
     9    4   31 1
    10    5    6 ar
    11    5    7 1
    12    6   32 1
    13    7    8 2
    14    7    9 1
    15   10   11 1
    16   10   22 1
    17   10   12 1
    18   12   19 2
    19   12   13 1
    20   13   14 2
    21   13   28 1
    22   14   15 1
    23   15   16 2
    24   15   17 1
    25   17   18 1
    26   17   19 1
    27   19   20 1
    28   20   21 2
    29   21   27 1
    30   21   22 1
    31   22   23 2
    32   23   24 1
    33   23   25 1
    34   25   26 1
    35   25   33 1
    36   25   34 1
    37   26   27 1
    38   26   35 1
    39   26   36 1
    40   27   37 1
    41   27   38 1
    42   28   39 1
    43   28   40 1
@<TRIPOS>MOLECULE
ZINC63416401
   41    43     0     0     0
SMALL
USER_CHARGES

@<TRIPOS>ATOM
      1 C1         -1.4584    1.0164   -1.1292 C.3       1 <0>         0.0236
      2 O1         -0.9691   -0.2752   -0.7624 O.3       1 <0>        -0.3017
      3 C2          0.1072   -0.7453   -1.4481 C.ar      1 <0>         0.1296
      4 C3          0.6817    0.0242   -2.4480 C.ar      1 <0>        -0.1767
      5 C4          1.7794   -0.4557   -3.1464 C.ar      1 <0>         0.1685
      6 C5          2.3021   -1.7103   -2.8414 C.ar      1 <0>         0.0796
      7 C6          1.7249   -2.4755   -1.8418 C.ar      1 <0>        -0.1414
      8 C7          0.6331   -1.9927   -1.1426 C.ar      1 <0>        -0.0484
      9 Cl1        -0.0842   -2.9514    0.1144 Cl        1 <0>        -0.0506
     10 O2          3.3787   -2.1838   -3.5253 O.3       1 <0>        -0.3138
     11 C8          3.8617   -3.4780   -3.1596 C.3       1 <0>         0.0267
     12 N1          2.3616    0.3202   -4.1580 N.am      1 <0>        -0.6490
     13 C9          2.2265    1.6611   -4.1409 C.2       1 <0>         0.5374
     14 O3          1.6885    2.2045   -3.1993 O.2       1 <0>        -0.4822
     15 C10         2.7440    2.4853   -5.2915 C.3       1 <0>        -0.0914
     16 H1          2.7147    1.9154   -6.2202 H         1 <0>         0.1672
     17 C11         1.9675    3.7727   -5.4245 C.2       1 <0>         0.2875
     18 C12         2.6771    4.9569   -5.2674 C.2       1 <0>        -0.2902
     19 C13         2.1474    6.2785   -5.3519 C.2       1 <0>        -0.0166
     20 C14         2.9924    7.3592   -5.1703 C.2       1 <0>        -0.2432
     21 C15         4.4159    7.1352   -4.8945 C.2       1 <0>         0.5235
     22 O4          5.1654    8.0856   -4.7331 O.2       1 <0>        -0.4272
     23 N2          4.8894    5.8884   -4.8199 N.2       1 <0>        -0.5407
     24 C16         4.1133    4.8442   -4.9874 C.2       1 <0>         0.2919
     25 S1          4.4419    3.0950   -4.9498 S.3       1 <0>         0.0000
     26 C17         2.4666    8.7246   -5.2539 C.2       1 <0>         0.5270
     27 O5          1.2787    8.9101   -5.4846 O.co2     1 <0>        -0.6988
     28 O6          3.2154    9.6798   -5.0930 O.co2     1 <0>        -0.6594
     29 N3          0.6516    3.7735   -5.6830 N.pl3     1 <0>        -0.7852
     30 H2         -0.6722    1.7574   -0.9843 H         1 <0>         0.0648
     31 H3         -1.7598    1.0067   -2.1767 H         1 <0>         0.0557
     32 H4         -2.3162    1.2703   -0.5066 H         1 <0>         0.1047
     33 H5          0.2744    0.9965   -2.6829 H         1 <0>         0.1692
     34 H6          2.1299   -3.4483   -1.6050 H         1 <0>         0.1508
     35 H7          4.1604   -3.4715   -2.1113 H         1 <0>         0.0586
     36 H8          3.0729   -4.2155   -3.3080 H         1 <0>         0.0576
     37 H9          4.7202   -3.7343   -3.7804 H         1 <0>         0.1047
     38 H10         2.8618   -0.1078   -4.8703 H         1 <0>         0.4227
     39 H11         1.0983    6.4341   -5.5557 H         1 <0>         0.1325
     40 H12         0.1776    2.9338   -5.7890 H         1 <0>         0.4087
     41 H13         0.1738    4.6137   -5.7641 H         1 <0>         0.4241
@<TRIPOS>BOND
     1    1    2 1
     2    1   30 1
     3    1   31 1
     4    1   32 1
     5    2    3 1
     6    3    8 ar
     7    3    4 ar
     8    4    5 ar
     9    4   33 1
    10    5    6 ar
    11    5   12 1
    12    6    7 ar
    13    6   10 1
    14    7    8 ar
    15    7   34 1
    16    8    9 1
    17   10   11 1
    18   11   35 1
    19   11   36 1
    20   11   37 1
    21   12   13 am
    22   12   38 1
    23   13   14 2
    24   13   15 1
    25   15   16 1
    26   15   25 1
    27   15   17 1
    28   17   18 2
    29   17   29 1
    30   18   24 1
    31   18   19 1
    32   19   20 2
    33   19   39 1
    34   20   21 1
    35   20   26 1
    36   21   22 2
    37   21   23 1
    38   23   24 2
    39   24   25 1
    40   26   27 2
    41   26   28 1
    42   29   40 1
    43   29   41 1
@<TRIPOS>MOLECULE
ZINC05573004
   56    59     0     0     0
SMALL
USER_CHARGES
8-acetyl-10-(2-aminoethoxy)-6,8,11-trihydroxy-1-methoxy-9,10-dihydro-7H-tetracene-5,12-dione
@<TRIPOS>ATOM
      1 C1          8.4765    0.7341   -2.7241 C.3       1 <0>        -0.1978
      2 C2          7.2538    1.1281   -1.9362 C.2       1 <0>         0.3238
      3 O1          6.1759    1.1769   -2.4784 O.2       1 <0>        -0.4315
      4 C3          7.3763    1.4613   -0.4716 C.3       1 <0>         0.0965
      5 C4          6.2212    2.3673   -0.0517 C.3       1 <0>        -0.1029
      6 C5          4.9156    1.6151   -0.0857 C.ar      1 <0>        -0.0337
      7 C6          4.8534    0.2444   -0.0935 C.ar      1 <0>        -0.0823
      8 C7          3.6105   -0.4022   -0.1089 C.ar      1 <0>         0.1739
      9 C8          2.4287    0.3355   -0.1221 C.ar      1 <0>        -0.1364
     10 C9          2.4922    1.7435   -0.1197 C.ar      1 <0>        -0.1236
     11 C10         3.7363    2.3715   -0.1017 C.ar      1 <0>         0.1612
     12 O2          3.8060    3.7259   -0.1001 O.3       1 <0>        -0.4689
     13 C11         1.2517    2.5376   -0.1355 C.2       1 <0>         0.4323
     14 O3          1.3059    3.7523   -0.1352 O.2       1 <0>        -0.4000
     15 C12        -0.0588    1.8549   -0.1528 C.ar      1 <0>        -0.0823
     16 C13        -1.2360    2.5960   -0.1612 C.ar      1 <0>        -0.1028
     17 C14        -2.4618    1.9510   -0.1826 C.ar      1 <0>        -0.0502
     18 C15        -2.5293    0.5726   -0.1854 C.ar      1 <0>        -0.1897
     19 C16        -1.3645   -0.1885   -0.1718 C.ar      1 <0>         0.1811
     20 C17        -0.1201    0.4490   -0.1551 C.ar      1 <0>        -0.1679
     21 C18         1.1218   -0.3449   -0.1393 C.2       1 <0>         0.4413
     22 O4          1.0678   -1.5600   -0.1410 O.2       1 <0>        -0.4114
     23 O5         -1.4359   -1.5426   -0.1744 O.3       1 <0>        -0.2864
     24 C19        -2.7414   -2.1235   -0.1918 C.3       1 <0>         0.0178
     25 O6          3.5574   -1.7573   -0.1106 O.3       1 <0>        -0.4784
     26 C20         6.0857   -0.6235   -0.0942 C.3       1 <0>         0.1507
     27 H1          6.2576   -1.0023   -1.1017 H         1 <0>         0.0825
     28 C21         7.3065    0.1741    0.3586 C.3       1 <0>        -0.1296
     29 O7          5.8865   -1.7247    0.7944 O.3       1 <0>        -0.3649
     30 C22         6.6612   -2.8808    0.4700 C.3       1 <0>         0.0197
     31 C23         6.4643   -3.9463    1.5503 C.3       1 <0>         0.0078
     32 O8          8.6196    2.1231   -0.2301 O.3       1 <0>        -0.5319
     33 H2          9.2770    0.7453   -2.1249 H         1 <0>         0.0829
     34 H3          8.3399   -0.2685   -3.1294 H         1 <0>         0.0937
     35 H4          8.6247    1.4394   -3.5418 H         1 <0>         0.1003
     36 H5          6.1645    3.2161   -0.7332 H         1 <0>         0.0955
     37 H6          6.3997    2.7313    0.9601 H         1 <0>         0.1130
     38 H7          3.8384    4.1191   -0.9829 H         1 <0>         0.4025
     39 H8         -1.1941    3.6752   -0.1593 H         1 <0>         0.1483
     40 H9         -3.3723    2.5318   -0.1933 H         1 <0>         0.1456
     41 H10        -3.4913    0.0820   -0.1986 H         1 <0>         0.1457
     42 H11        -3.2936   -1.8027    0.6915 H         1 <0>         0.0617
     43 H12        -3.2707   -1.8006   -1.0883 H         1 <0>         0.0620
     44 H13        -2.6556   -3.2101   -0.1920 H         1 <0>         0.1076
     45 H14         3.4809   -2.1469   -0.9923 H         1 <0>         0.3926
     46 H15         8.2097   -0.4149    0.1998 H         1 <0>         0.0940
     47 H16         7.2118    0.4234    1.4155 H         1 <0>         0.1042
     48 H17         6.3384   -3.2760   -0.4932 H         1 <0>         0.0781
     49 H18         7.7153   -2.6085    0.4162 H         1 <0>         0.0979
     50 H19         7.1221   -4.7922    1.3505 H         1 <0>         0.1479
     51 H20         6.7029   -3.5230    2.5259 H         1 <0>         0.1396
     52 H21         4.8021   -4.7375    0.6286 H         1 <0>         0.4354
     53 H22         4.9113   -5.1044    2.2470 H         1 <0>         0.4387
     54 H23         8.7224    2.9551   -0.7120 H         1 <0>         0.3918
     55 N1          5.0554   -4.3781    1.5475 N.4       1 <0>        -0.6461
     56 H24         4.4558   -3.5749    1.7700 H         1 <0>         0.4512
@<TRIPOS>BOND
     1    1    2 1
     2    1   33 1
     3    1   34 1
     4    1   35 1
     5    2    3 2
     6    2    4 1
     7    4   28 1
     8    4    5 1
     9    4   32 1
    10    5    6 1
    11    5   36 1
    12    5   37 1
    13    6   11 ar
    14    6    7 ar
    15    7    8 ar
    16    7   26 1
    17    8    9 ar
    18    8   25 1
    19    9   21 1
    20    9   10 ar
    21   10   11 ar
    22   10   13 1
    23   11   12 1
    24   12   38 1
    25   13   14 2
    26   13   15 1
    27   15   20 ar
    28   15   16 ar
    29   16   17 ar
    30   16   39 1
    31   17   18 ar
    32   17   40 1
    33   18   19 ar
    34   18   41 1
    35   19   20 ar
    36   19   23 1
    37   20   21 1
    38   21   22 2
    39   23   24 1
    40   24   42 1
    41   24   43 1
    42   24   44 1
    43   25   45 1
    44   26   27 1
    45   26   28 1
    46   26   29 1
    47   28   46 1
    48   28   47 1
    49   29   30 1
    50   30   31 1
    51   30   48 1
    52   30   49 1
    53   31   50 1
    54   31   51 1
    55   31   55 1
    56   32   54 1
    57   52   55 1
    58   53   55 1
    59   55   56 1
@<TRIPOS>MOLECULE
ZINC02106333
   51    55     0     0     0
SMALL
USER_CHARGES
6-hydroxy-3-(4-methoxyphenyl)-5-[(1R)-2,3,4,9-tetrahydro-1H-pyrido[3,4-b]indol-1-yl]-2-thioxo-1H-pyrimidin-4-one
@<TRIPOS>ATOM
      1 C1          9.1599    5.5912   -1.2070 C.3       1 <0>         0.0215
      2 O1          8.7884    4.8336   -0.0537 O.3       1 <0>        -0.3075
      3 C2          7.5403    4.2946   -0.0450 C.ar      1 <0>         0.1649
      4 C3          7.1153    3.5475    1.0440 C.ar      1 <0>        -0.1393
      5 C4          5.8479    2.9994    1.0532 C.ar      1 <0>        -0.0383
      6 C5          4.9988    3.1965   -0.0275 C.ar      1 <0>         0.0550
      7 C6          5.4266    3.9398   -1.1193 C.ar      1 <0>        -0.0330
      8 C7          6.6921    4.4922   -1.1249 C.ar      1 <0>        -0.1966
      9 N1          3.7116    2.6401   -0.0187 N.am      1 <0>        -0.4476
     10 C8          2.6810    3.3465    0.4867 C.2       1 <0>         0.5628
     11 O2          2.8649    4.4650    0.9350 O.2       1 <0>        -0.4833
     12 C9          1.3913    2.7863    0.4885 C.2       1 <0>        -0.3869
     13 C10         1.2135    1.5311   -0.0138 C.2       1 <0>         0.4667
     14 N2          2.2899    0.8474   -0.5187 N.pl3     1 <0>        -0.6072
     15 H1          2.1675   -0.0440   -0.8810 H         1 <0>         0.4554
     16 C11         3.5144    1.4051   -0.5152 C.2       1 <0>         0.4894
     17 S1          4.8414    0.5303   -1.1515 S.2       1 <0>        -0.4059
     18 O3         -0.0134    0.9680   -0.0191 O.3       1 <0>        -0.4268
     19 C12         0.2229    3.5601    1.0427 C.3       1 <0>         0.2191
     20 H2         -0.6667    2.9303    1.0426 H         1 <0>         0.1626
     21 C13        -0.0226    4.7854    0.1944 C.2       1 <0>         0.0288
     22 C14        -0.2812    6.0059    0.7245 C.2       1 <0>        -0.1448
     23 C15        -0.4511    6.9224   -0.3807 C.ar      1 <0>        -0.0980
     24 C16        -0.7317    8.2908   -0.4475 C.ar      1 <0>        -0.0626
     25 C17        -0.8244    8.8457   -1.6997 C.ar      1 <0>        -0.1372
     26 C18        -0.6508    8.0964   -2.8519 C.ar      1 <0>        -0.0813
     27 C19        -0.3723    6.7412   -2.8159 C.ar      1 <0>        -0.1308
     28 C20        -0.2721    6.1502   -1.5582 C.ar      1 <0>         0.1124
     29 N3         -0.0143    4.8668   -1.1686 N.pl3     1 <0>        -0.5603
     30 H3          0.1479    4.1230   -1.7698 H         1 <0>         0.4156
     31 C21        -0.3626    6.2701    2.2070 C.3       1 <0>        -0.0707
     32 C22        -0.4989    4.9194    2.9230 C.3       1 <0>         0.0006
     33 H4          9.1092    4.9556   -2.0910 H         1 <0>         0.0620
     34 H5          8.4767    6.4324   -1.3247 H         1 <0>         0.0605
     35 H6         10.1770    5.9635   -1.0850 H         1 <0>         0.1090
     36 H7          7.7759    3.3942    1.8845 H         1 <0>         0.1468
     37 H8          5.5174    2.4172    1.9006 H         1 <0>         0.1318
     38 H9          4.7681    4.0897   -1.9621 H         1 <0>         0.1259
     39 H10         7.0234    5.0742   -1.9722 H         1 <0>         0.1426
     40 H11        -0.0366    0.0791   -0.3991 H         1 <0>         0.4356
     41 H12        -0.8696    8.8835    0.4448 H         1 <0>         0.1352
     42 H13        -1.0398    9.9002   -1.7895 H         1 <0>         0.1276
     43 H14        -0.7354    8.5864   -3.8106 H         1 <0>         0.1302
     44 H15        -0.2393    6.1678   -3.7214 H         1 <0>         0.1326
     45 H16        -1.2318    6.8911    2.4233 H         1 <0>         0.1213
     46 H17         0.5439    6.7746    2.5416 H         1 <0>         0.1020
     47 H18        -1.4897    4.5064    2.7342 H         1 <0>         0.1344
     48 H19        -0.3625    5.0610    3.9951 H         1 <0>         0.1424
     49 N4          0.5338    3.9880    2.4245 N.4       1 <0>        -0.5135
     50 H20         1.4464    4.4583    2.4352 H         1 <0>         0.4408
     51 H21         0.5669    3.1626    3.0343 H         1 <0>         0.4360
@<TRIPOS>BOND
     1    1    2 1
     2    1   33 1
     3    1   34 1
     4    1   35 1
     5    2    3 1
     6    3    8 ar
     7    3    4 ar
     8    4    5 ar
     9    4   36 1
    10    5    6 ar
    11    5   37 1
    12    6    7 ar
    13    6    9 1
    14    7    8 ar
    15    7   38 1
    16    8   39 1
    17    9   16 1
    18    9   10 am
    19   10   11 2
    20   10   12 1
    21   12   13 2
    22   12   19 1
    23   13   14 1
    24   13   18 1
    25   14   15 1
    26   14   16 1
    27   16   17 2
    28   18   40 1
    29   19   20 1
    30   19   21 1
    31   19   49 1
    32   21   29 1
    33   21   22 2
    34   22   23 1
    35   22   31 1
    36   23   28 ar
    37   23   24 ar
    38   24   25 ar
    39   24   41 1
    40   25   26 ar
    41   25   42 1
    42   26   27 ar
    43   26   43 1
    44   27   28 ar
    45   27   44 1
    46   28   29 1
    47   29   30 1
    48   31   32 1
    49   31   45 1
    50   31   46 1
    51   32   47 1
    52   32   48 1
    53   32   49 1
    54   49   50 1
    55   49   51 1
@<TRIPOS>MOLECULE
ZINC41070167
   39    40     0     0     0
SMALL
USER_CHARGES

@<TRIPOS>ATOM
      1 C1         -0.5925    1.1739    0.2356 C.3       1 <0>        -0.0475
      2 N1         -0.0553   -0.1857    0.0906 N.4       1 <0>        -0.3823
      3 C2          1.0177   -0.1820   -0.9109 C.3       1 <0>        -0.0113
      4 C3          1.5258   -1.6094   -1.1249 C.3       1 <0>        -0.1446
      5 C4          2.0637   -2.1579    0.1998 C.3       1 <0>        -0.1513
      6 C5          0.9577   -2.0879    1.2567 C.3       1 <0>         0.1380
      7 H1          0.1272   -2.7271    0.9573 H         1 <0>         0.1135
      8 C6          0.4707   -0.6427    1.3825 C.3       1 <0>        -0.0242
      9 N2          1.4841   -2.5416    2.5464 N.pl3     1 <0>        -1.1157
     10 S1          0.7683   -3.8115    3.3323 S.o2      1 <0>         2.6937
     11 O1          1.5346   -4.0469    4.5056 O.2       1 <0>        -0.9307
     12 O2         -0.6238   -3.5298    3.3753 O.2       1 <0>        -0.9404
     13 C7          0.9630   -5.2333    2.3100 C.ar      1 <0>        -0.8018
     14 C8         -0.1420   -5.8577    1.7597 C.ar      1 <0>         0.0937
     15 C9          0.0582   -6.9757    0.9600 C.ar      1 <0>        -0.2277
     16 C10         1.3448   -7.4276    0.7393 C.ar      1 <0>         0.2497
     17 N3          2.3799   -6.8116    1.2780 N.ar      1 <0>        -0.5191
     18 C11         2.2302   -5.7396    2.0407 C.ar      1 <0>         0.5057
     19 N4          3.3498   -5.1178    2.5824 N.pl3     1 <0>        -0.5521
     20 N5          4.5848   -5.6811    2.4295 N.3       1 <0>        -0.5923
     21 Br1        -1.4152   -7.8700    0.1820 Br        1 <0>        -0.0133
     22 H2          0.2013    1.8451    0.5633 H         1 <0>         0.1233
     23 H3         -0.9835    1.5143   -0.7232 H         1 <0>         0.1279
     24 H4         -1.3940    1.1710    0.9744 H         1 <0>         0.1272
     25 H5          0.6341    0.2117   -1.8522 H         1 <0>         0.1368
     26 H6          1.8372    0.4465   -0.5624 H         1 <0>         0.1315
     27 H7          0.7070   -2.2387   -1.4738 H         1 <0>         0.0934
     28 H8          2.3236   -1.6042   -1.8676 H         1 <0>         0.1201
     29 H9          2.3748   -3.1939    0.0658 H         1 <0>         0.0966
     30 H10         2.9153   -1.5593    0.5232 H         1 <0>         0.0923
     31 H11         1.3019   -0.0044    1.6821 H         1 <0>         0.1380
     32 H12        -0.3167   -0.5893    2.1343 H         1 <0>         0.1432
     33 H13         2.2518   -2.0983    2.9400 H         1 <0>         0.4265
     34 H14        -1.1379   -5.4846    1.9480 H         1 <0>         0.1646
     35 H15         1.5055   -8.2964    0.1182 H         1 <0>         0.1803
     36 H16         3.2538   -4.2841    3.0688 H         1 <0>         0.4069
     37 H17         4.7970   -5.8280    1.4541 H         1 <0>         0.3560
     38 H18         5.2958   -5.1195    2.8737 H         1 <0>         0.3676
     39 H19        -0.7914   -0.8067   -0.2104 H         1 <0>         0.4274
@<TRIPOS>BOND
     1    1    2 1
     2    1   22 1
     3    1   23 1
     4    1   24 1
     5    2    8 1
     6    2    3 1
     7    2   39 1
     8    3    4 1
     9    3   25 1
    10    3   26 1
    11    4    5 1
    12    4   27 1
    13    4   28 1
    14    5    6 1
    15    5   29 1
    16    5   30 1
    17    6    7 1
    18    6    8 1
    19    6    9 1
    20    8   31 1
    21    8   32 1
    22    9   10 1
    23    9   33 1
    24   10   11 2
    25   10   12 2
    26   10   13 1
    27   13   18 ar
    28   13   14 ar
    29   14   15 ar
    30   14   34 1
    31   15   16 ar
    32   15   21 1
    33   16   17 ar
    34   16   35 1
    35   17   18 ar
    36   18   19 1
    37   19   20 1
    38   19   36 1
    39   20   37 1
    40   20   38 1
@<TRIPOS>MOLECULE
ZINC52502421
   60    61     0     0     0
SMALL
USER_CHARGES

@<TRIPOS>ATOM
      1 C1          0.7407    1.9292   -0.9692 C.3       1 <0>        -0.1534
      2 C2          0.7934    0.4003   -0.9929 C.3       1 <0>        -0.0978
      3 H1          1.6220    0.0750   -1.6220 H         1 <0>         0.0631
      4 C3         -0.5198   -0.1466   -1.5562 C.3       1 <0>        -0.1287
      5 C4         -0.4671   -1.6755   -1.5800 C.3       1 <0>        -0.1342
      6 C5         -0.2643   -2.2010   -0.1575 C.3       1 <0>        -0.1387
      7 C6          1.0489   -1.6541    0.4059 C.3       1 <0>         0.0509
      8 C7          0.9962   -0.1252    0.4296 C.3       1 <0>        -0.1321
      9 C8          1.2517   -2.1796    1.8284 C.3       1 <0>         0.1218
     10 N1          1.1722   -3.6424    1.8246 N.am      1 <0>        -0.7671
     11 C9          1.4555   -4.3356    2.9452 C.2       1 <0>         0.7035
     12 O1          1.7769   -3.7469    3.9593 O.2       1 <0>        -0.5645
     13 N2          1.3823   -5.6814    2.9417 N.am      1 <0>        -0.7349
     14 C10         1.6902   -6.4348    4.1598 C.3       1 <0>         0.2023
     15 H2          2.4874   -5.9314    4.7067 H         1 <0>         0.1061
     16 C11         0.4407   -6.5156    5.0390 C.3       1 <0>        -0.1643
     17 C12         2.1354   -7.8264    3.7906 C.ar      1 <0>        -0.1195
     18 C13         1.5051   -8.5042    2.7636 C.ar      1 <0>        -0.0595
     19 C14         1.9134   -9.7805    2.4250 C.ar      1 <0>        -0.1323
     20 C15         2.9525  -10.3792    3.1131 C.ar      1 <0>        -0.0150
     21 C16         3.5832   -9.7013    4.1392 C.ar      1 <0>        -0.6687
     22 C17         3.1775   -8.4230    4.4750 C.ar      1 <0>        -0.0029
     23 S1          4.9070  -10.4645    5.0164 S.o2      1 <0>         2.6988
     24 O2          4.9683   -9.8340    6.2884 O.2       1 <0>        -0.9562
     25 O3          4.7363  -11.8675    4.8691 O.2       1 <0>        -0.9531
     26 N3          6.3084  -10.0727    4.2259 N.pl3     1 <0>        -1.2470
     27 N4          2.1656   -2.0924   -0.4419 N.4       1 <0>        -0.3782
     28 C18         3.4365   -1.6926    0.1769 C.3       1 <0>        -0.0607
     29 C19         2.1285   -3.5541   -0.5836 C.3       1 <0>        -0.0860
     30 H3          1.6762    2.3188   -0.5679 H         1 <0>         0.0633
     31 H4          0.5962    2.3035   -1.9826 H         1 <0>         0.0686
     32 H5         -0.0880    2.2544   -0.3401 H         1 <0>         0.0671
     33 H6         -1.3484    0.1786   -0.9272 H         1 <0>         0.0821
     34 H7         -0.6643    0.2277   -2.5697 H         1 <0>         0.0829
     35 H8         -1.4026   -2.0651   -1.9813 H         1 <0>         0.0950
     36 H9          0.3615   -2.0008   -2.2091 H         1 <0>         0.0578
     37 H10        -1.0929   -1.8757    0.4716 H         1 <0>         0.1168
     38 H11        -0.2267   -3.2902   -0.1744 H         1 <0>         0.0852
     39 H12         1.9317    0.2644    0.8309 H         1 <0>         0.0950
     40 H13         0.1676    0.2001    1.0587 H         1 <0>         0.1168
     41 H14         2.2308   -1.8698    2.1940 H         1 <0>         0.1012
     42 H15         0.4763   -1.7752    2.4791 H         1 <0>         0.1114
     43 H16         0.9158   -4.1121    1.0156 H         1 <0>         0.3973
     44 H17         1.1259   -6.1510    2.1327 H         1 <0>         0.3950
     45 H18        -0.3566   -7.0190    4.4921 H         1 <0>         0.0611
     46 H19         0.6697   -7.0762    5.9453 H         1 <0>         0.0770
     47 H20         0.1186   -5.5090    5.3061 H         1 <0>         0.0700
     48 H21         0.6935   -8.0365    2.2261 H         1 <0>         0.1274
     49 H22         1.4206  -10.3102    1.6232 H         1 <0>         0.1391
     50 H23         3.2711  -11.3768    2.8490 H         1 <0>         0.1479
     51 H24         3.6729   -7.8918    5.2744 H         1 <0>         0.1471
     52 H25         7.1396   -9.9982    4.7204 H         1 <0>         0.4245
     53 H26         6.2981   -9.9177    3.2685 H         1 <0>         0.4161
     54 H27         3.4658   -0.6077    0.2782 H         1 <0>         0.1281
     55 H28         3.5215   -2.1519    1.1617 H         1 <0>         0.1276
     56 H29         4.2653   -2.0214   -0.4501 H         1 <0>         0.1281
     57 H30         1.1287   -3.8644   -0.8873 H         1 <0>         0.1270
     58 H31         2.8504   -3.8644   -1.3390 H         1 <0>         0.1298
     59 H32         2.3788   -4.0181    0.3704 H         1 <0>         0.1383
     60 H33         2.0853   -1.6642   -1.3520 H         1 <0>         0.4240
@<TRIPOS>BOND
     1    1    2 1
     2    1   30 1
     3    1   31 1
     4    1   32 1
     5    2    3 1
     6    2    8 1
     7    2    4 1
     8    4    5 1
     9    4   33 1
    10    4   34 1
    11    5    6 1
    12    5   35 1
    13    5   36 1
    14    6    7 1
    15    6   37 1
    16    6   38 1
    17    7    8 1
    18    7    9 1
    19    7   27 1
    20    8   39 1
    21    8   40 1
    22    9   10 1
    23    9   41 1
    24    9   42 1
    25   10   11 am
    26   10   43 1
    27   11   12 2
    28   11   13 am
    29   13   14 1
    30   13   44 1
    31   14   15 1
    32   14   16 1
    33   14   17 1
    34   16   45 1
    35   16   46 1
    36   16   47 1
    37   17   22 ar
    38   17   18 ar
    39   18   19 ar
    40   18   48 1
    41   19   20 ar
    42   19   49 1
    43   20   21 ar
    44   20   50 1
    45   21   22 ar
    46   21   23 1
    47   22   51 1
    48   23   24 2
    49   23   25 2
    50   23   26 1
    51   26   52 1
    52   26   53 1
    53   27   28 1
    54   27   29 1
    55   27   60 1
    56   28   54 1
    57   28   55 1
    58   28   56 1
    59   29   57 1
    60   29   58 1
    61   29   59 1
@<TRIPOS>MOLECULE
ZINC66115481
   54    56     0     0     0
SMALL
USER_CHARGES

@<TRIPOS>ATOM
      1 C1          0.1744    1.0953   -0.1616 C.3       1 <0>        -0.1464
      2 C2          0.0557   -0.4301   -0.1571 C.3       1 <0>         0.0749
      3 C3          0.8390   -0.9990    1.0277 C.3       1 <0>        -0.1804
      4 O1         -1.3195   -0.8006   -0.0410 O.3       1 <0>        -0.3138
      5 C4         -1.7014   -1.9535   -0.6505 C.ar      1 <0>         0.1980
      6 C5         -0.7343   -2.7803   -1.2309 C.ar      1 <0>        -0.2098
      7 C6         -1.0854   -3.9402   -1.8479 C.ar      1 <0>        -0.0150
      8 C7         -2.4385   -4.3176   -1.9050 C.ar      1 <0>        -0.0897
      9 C8         -2.8363   -5.5096   -2.5341 C.ar      1 <0>        -0.0706
     10 C9         -4.1549   -5.8445   -2.5707 C.ar      1 <0>        -0.1283
     11 C10        -5.1206   -5.0224   -1.9927 C.ar      1 <0>        -0.0674
     12 C11        -4.7728   -3.8607   -1.3749 C.ar      1 <0>        -0.1631
     13 C12        -3.4204   -3.4814   -1.3171 C.ar      1 <0>         0.0075
     14 C13        -3.0240   -2.2923   -0.6833 C.ar      1 <0>        -0.2168
     15 C14        -4.0527   -1.3931   -0.0475 C.3       1 <0>         0.0495
     16 N1         -4.5317   -0.4200   -1.0383 N.4       1 <0>        -0.3821
     17 C15        -5.2323   -1.1252   -2.1228 C.3       1 <0>        -0.0327
     18 C16        -5.5003   -0.1380   -3.2604 C.3       1 <0>         0.0877
     19 N2         -6.1404    1.0650   -2.7341 N.am      1 <0>        -0.7098
     20 C17        -6.1217    1.3817   -1.4344 C.2       1 <0>         0.5284
     21 O2         -6.6567    2.4104   -1.0785 O.2       1 <0>        -0.5004
     22 C18        -5.4655    0.5146   -0.3978 C.3       1 <0>         0.0346
     23 H1         -6.2293   -0.0484    0.1384 H         1 <0>         0.1745
     24 C19        -4.7014    1.3968    0.5915 C.3       1 <0>        -0.1602
     25 C20        -3.6845    2.2227   -0.1534 C.2       1 <0>         0.5115
     26 O3         -3.6468    2.1898   -1.3652 O.2       1 <0>        -0.5363
     27 N3         -2.8171    2.9979    0.5270 N.am      1 <0>        -0.5526
     28 N4         -1.8953    3.7465   -0.1482 N.3       1 <0>        -0.5984
     29 H2          1.2234    1.3779   -0.2501 H         1 <0>         0.0804
     30 H3         -0.3836    1.5007   -1.0056 H         1 <0>         0.0743
     31 H4         -0.2322    1.4941    0.7679 H         1 <0>         0.0663
     32 H5          0.4623   -0.8288   -1.0865 H         1 <0>         0.0813
     33 H6          0.4325   -0.6003    1.9571 H         1 <0>         0.0701
     34 H7          0.7545   -2.0858    1.0309 H         1 <0>         0.0628
     35 H8          1.8880   -0.7164    0.9392 H         1 <0>         0.0807
     36 H9          0.3060   -2.4934   -1.1889 H         1 <0>         0.1455
     37 H10        -0.3280   -4.5686   -2.2925 H         1 <0>         0.1447
     38 H11        -2.0993   -6.1565   -2.9867 H         1 <0>         0.1371
     39 H12        -4.4576   -6.7610   -3.0552 H         1 <0>         0.1337
     40 H13        -6.1603   -5.3113   -2.0361 H         1 <0>         0.1332
     41 H14        -5.5320   -3.2333   -0.9317 H         1 <0>         0.1241
     42 H15        -4.8907   -1.9934    0.3068 H         1 <0>         0.1389
     43 H16        -3.6033   -0.8645    0.7931 H         1 <0>         0.1390
     44 H17        -4.6111   -1.9432   -2.4877 H         1 <0>         0.1575
     45 H18        -6.1779   -1.5197   -1.7510 H         1 <0>         0.1392
     46 H19        -4.5571    0.1320   -3.7353 H         1 <0>         0.0973
     47 H20        -6.1549   -0.6036   -3.9971 H         1 <0>         0.1260
     48 H21        -6.5967    1.6579   -3.3515 H         1 <0>         0.4250
     49 H22        -5.4006    2.0573    1.1044 H         1 <0>         0.1543
     50 H23        -4.1935    0.7675    1.3223 H         1 <0>         0.1310
     51 H24        -2.8473    3.0243    1.4962 H         1 <0>         0.4079
     52 H25        -2.3435    4.3561   -0.8157 H         1 <0>         0.3550
     53 H26        -1.3182    4.2723    0.4911 H         1 <0>         0.3675
     54 H27        -3.7481    0.0911   -1.4162 H         1 <0>         0.4343
@<TRIPOS>BOND
     1    1    2 1
     2    1   29 1
     3    1   30 1
     4    1   31 1
     5    2    3 1
     6    2    4 1
     7    2   32 1
     8    3   33 1
     9    3   34 1
    10    3   35 1
    11    4    5 1
    12    5   14 ar
    13    5    6 ar
    14    6    7 ar
    15    6   36 1
    16    7    8 ar
    17    7   37 1
    18    8   13 ar
    19    8    9 ar
    20    9   10 ar
    21    9   38 1
    22   10   11 ar
    23   10   39 1
    24   11   12 ar
    25   11   40 1
    26   12   13 ar
    27   12   41 1
    28   13   14 ar
    29   14   15 1
    30   15   16 1
    31   15   42 1
    32   15   43 1
    33   16   22 1
    34   16   17 1
    35   16   54 1
    36   17   18 1
    37   17   44 1
    38   17   45 1
    39   18   19 1
    40   18   46 1
    41   18   47 1
    42   19   20 am
    43   19   48 1
    44   20   21 2
    45   20   22 1
    46   22   23 1
    47   22   24 1
    48   24   25 1
    49   24   49 1
    50   24   50 1
    51   25   26 2
    52   25   27 am
    53   27   28 1
    54   27   51 1
    55   28   52 1
    56   28   53 1
@<TRIPOS>MOLECULE
ZINC03552525
   44    46     0     0     0
SMALL
USER_CHARGES
N-(allylcarbamoyl)-2-(aminoBLAHyl)sulfanyl-acetamide
@<TRIPOS>ATOM
      1 C1         -3.5613   16.9445    5.1902 C.2       1 <0>        -0.1571
      2 C2         -4.2024   15.8370    4.9099 C.2       1 <0>        -0.1831
      3 C3         -4.2473   15.3307    3.4912 C.3       1 <0>         0.1620
      4 N1         -3.7500   13.9534    3.4483 N.am      1 <0>        -0.7336
      5 C4         -3.6982   13.2919    2.2752 C.2       1 <0>         0.6937
      6 O1         -4.0642   13.8380    1.2529 O.2       1 <0>        -0.5245
      7 N2         -3.2407   12.0248    2.2356 N.am      1 <0>        -0.6858
      8 C5         -3.1889   11.3633    1.0625 C.2       1 <0>         0.5357
      9 O2         -3.5539   11.9081    0.0428 O.2       1 <0>        -0.4470
     10 C6         -2.6773    9.9465    1.0183 C.3       1 <0>        -0.1562
     11 S1         -2.7313    9.3384   -0.6856 S.3       1 <0>         0.1133
     12 C7         -2.0973    7.7114   -0.4501 C.ar      1 <0>         0.3339
     13 N3         -1.7612    7.3354    0.7751 N.ar      1 <0>        -0.6047
     14 C8         -1.2730    6.1347    1.0750 C.ar      1 <0>         0.5071
     15 C9         -1.1199    5.2325   -0.0178 C.ar      1 <0>        -0.2497
     16 C10        -0.6137    3.8700    0.0352 C.2       1 <0>        -0.0803
     17 C11        -0.5578    3.1975   -1.1360 C.2       1 <0>        -0.1529
     18 S2         -1.1704    4.3321   -2.3565 S.3       1 <0>         0.1264
     19 C12        -1.5005    5.7045   -1.2989 C.ar      1 <0>         0.1442
     20 N4         -1.9782    6.9143   -1.5143 N.ar      1 <0>        -0.4738
     21 C13        -0.0813    1.7945   -1.3547 C.3       1 <0>        -0.0410
     22 C14         0.6873    1.3408   -0.1056 C.3       1 <0>        -0.1152
     23 C15        -0.1385    1.6906    1.1359 C.3       1 <0>        -0.1201
     24 C16        -0.1613    3.2060    1.3332 C.3       1 <0>        -0.0715
     25 N5         -0.9348    5.7829    2.3691 N.pl3     1 <0>        -0.8268
     26 H1         -3.5291   17.3074    6.2069 H         1 <0>         0.1058
     27 H2         -3.0650   17.4948    4.4045 H         1 <0>         0.1021
     28 H3         -4.6986   15.2867    5.6956 H         1 <0>         0.1171
     29 H4         -3.6224   15.9625    2.8600 H         1 <0>         0.0753
     30 H5         -5.2748   15.3575    3.1283 H         1 <0>         0.0799
     31 H6         -3.4579   13.5175    4.2641 H         1 <0>         0.4004
     32 H7         -2.9486   11.5889    3.0515 H         1 <0>         0.4123
     33 H8         -3.3022    9.3147    1.6495 H         1 <0>         0.1320
     34 H9         -1.6499    9.9197    1.3812 H         1 <0>         0.1322
     35 H10         0.5781    1.7627   -2.2220 H         1 <0>         0.0862
     36 H11        -0.9364    1.1384   -1.5169 H         1 <0>         0.0876
     37 H12         0.8480    0.2635   -0.1463 H         1 <0>         0.0778
     38 H13         1.6486    1.8526   -0.0616 H         1 <0>         0.0698
     39 H14        -1.1585    1.3290    1.0063 H         1 <0>         0.0693
     40 H15         0.3046    1.2159    2.0114 H         1 <0>         0.0740
     41 H16         0.8387    3.5539    1.5920 H         1 <0>         0.0807
     42 H17        -0.8562    3.4590    2.1341 H         1 <0>         0.0783
     43 H18        -1.2669    6.3050    3.1161 H         1 <0>         0.4097
     44 H19        -0.3656    5.0141    2.5297 H         1 <0>         0.4167
@<TRIPOS>BOND
     1    1    2 2
     2    1   26 1
     3    1   27 1
     4    2    3 1
     5    2   28 1
     6    3    4 1
     7    3   29 1
     8    3   30 1
     9    4    5 am
    10    4   31 1
    11    5    6 2
    12    5    7 am
    13    7    8 am
    14    7   32 1
    15    8    9 2
    16    8   10 1
    17   10   11 1
    18   10   33 1
    19   10   34 1
    20   11   12 1
    21   12   20 ar
    22   12   13 ar
    23   13   14 ar
    24   14   15 ar
    25   14   25 1
    26   15   19 ar
    27   15   16 1
    28   16   24 1
    29   16   17 2
    30   17   18 1
    31   17   21 1
    32   18   19 1
    33   19   20 ar
    34   21   22 1
    35   21   35 1
    36   21   36 1
    37   22   23 1
    38   22   37 1
    39   22   38 1
    40   23   24 1
    41   23   39 1
    42   23   40 1
    43   24   41 1
    44   24   42 1
    45   25   43 1
    46   25   44 1
@<TRIPOS>MOLECULE
ZINC38555967
   51    55     0     0     0
SMALL
USER_CHARGES

@<TRIPOS>ATOM
      1 C1         -1.0933    1.3060   -0.3132 C.3       1 <0>        -0.1191
      2 C2         -0.8515   -0.1796   -0.2396 C.ar      1 <0>        -0.0785
      3 C3          0.3938   -0.6587    0.1236 C.ar      1 <0>        -0.1029
      4 C4          0.6187   -2.0197    0.1920 C.ar      1 <0>        -0.1256
      5 C5         -0.4073   -2.9073   -0.1046 C.ar      1 <0>         0.1404
      6 C6         -1.6568   -2.4229   -0.4691 C.ar      1 <0>        -0.1002
      7 C7         -1.8768   -1.0608   -0.5301 C.ar      1 <0>        -0.1016
      8 N1         -0.1826   -4.2868   -0.0367 N.am      1 <0>        -0.5939
      9 C8          0.1789   -4.8970    1.2441 C.3       1 <0>         0.3261
     10 H1          1.2629   -4.9915    1.3082 H         1 <0>         0.0906
     11 C9         -0.4609   -6.2833    1.3487 C.3       1 <0>        -0.1143
     12 H2         -0.0103   -6.8308    2.1766 H         1 <0>         0.1345
     13 C10        -0.2287   -7.0347    0.0619 C.2       1 <0>         0.5472
     14 O1         -0.0617   -8.2353    0.0823 O.2       1 <0>        -0.4812
     15 N2         -0.2072   -6.3719   -1.1089 N.am      1 <0>        -0.6596
     16 C11        -0.3070   -5.0331   -1.1462 C.2       1 <0>         0.7292
     17 O2         -0.5104   -4.4836   -2.2110 O.2       1 <0>        -0.5330
     18 C12        -1.9642   -6.1355    1.5916 C.3       1 <0>         0.1745
     19 H3         -2.1338   -5.5133    2.4704 H         1 <0>         0.0898
     20 C13        -2.5798   -7.4977    1.8078 C.2       1 <0>         0.0581
     21 H4         -1.2571   -8.4858    3.0786 H         1 <0>         0.4129
     22 C14        -3.7476   -7.8769    1.2407 C.2       1 <0>        -0.1439
     23 C15        -4.0122   -9.2314    1.6718 C.ar      1 <0>        -0.1018
     24 C16        -5.0547  -10.1255    1.4105 C.ar      1 <0>        -0.0655
     25 C17        -4.9771  -11.3611    2.0048 C.ar      1 <0>        -0.1505
     26 C18        -3.9207  -11.7174    2.8263 C.ar      1 <0>        -0.0982
     27 C19        -2.8757  -10.8524    3.1028 C.ar      1 <0>        -0.1312
     28 C20        -2.9273   -9.5914    2.5137 C.ar      1 <0>         0.1082
     29 N3         -2.0836   -8.5188    2.5718 N.pl3     1 <0>        -0.5723
     30 C21        -4.5623   -6.9850    0.3380 C.3       1 <0>        -0.0423
     31 C22        -4.0633   -5.5448    0.5186 C.3       1 <0>         0.0604
     32 N4         -2.5964   -5.5144    0.4165 N.3       1 <0>        -0.6939
     33 O3         -0.2914   -4.0738    2.3133 O.3       1 <0>        -0.5420
     34 H5         -1.4341    1.6671    0.6572 H         1 <0>         0.0741
     35 H6         -0.1667    1.8120   -0.5843 H         1 <0>         0.0694
     36 H7         -1.8542    1.5134   -1.0657 H         1 <0>         0.0695
     37 H8          1.1915    0.0320    0.3538 H         1 <0>         0.1308
     38 H9          1.5916   -2.3933    0.4754 H         1 <0>         0.1270
     39 H10        -2.4566   -3.1107   -0.7007 H         1 <0>         0.1237
     40 H11        -2.8496   -0.6835   -0.8088 H         1 <0>         0.1301
     41 H12        -0.1221   -6.8687   -1.9376 H         1 <0>         0.4307
     42 H13        -5.8824   -9.8572    0.7707 H         1 <0>         0.1278
     43 H14        -5.7648  -12.0779    1.8255 H         1 <0>         0.1179
     44 H15        -3.9119  -12.7036    3.2667 H         1 <0>         0.1208
     45 H16        -2.0575  -11.1424    3.7453 H         1 <0>         0.1271
     46 H17        -4.4319   -7.2928   -0.6994 H         1 <0>         0.0783
     47 H18        -5.6156   -7.0471    0.6118 H         1 <0>         0.0778
     48 H19        -4.4938   -4.9111   -0.2567 H         1 <0>         0.0828
     49 H20        -4.3650   -5.1759    1.4989 H         1 <0>         0.0421
     50 H21        -2.2598   -4.5730    0.2801 H         1 <0>         0.3552
     51 H22         0.1431   -3.2115    2.3662 H         1 <0>         0.3947
@<TRIPOS>BOND
     1    1    2 1
     2    1   34 1
     3    1   35 1
     4    1   36 1
     5    2    7 ar
     6    2    3 ar
     7    3    4 ar
     8    3   37 1
     9    4    5 ar
    10    4   38 1
    11    5    6 ar
    12    5    8 1
    13    6    7 ar
    14    6   39 1
    15    7   40 1
    16    8   16 am
    17    8    9 1
    18    9   10 1
    19    9   11 1
    20    9   33 1
    21   11   12 1
    22   11   13 1
    23   11   18 1
    24   13   14 2
    25   13   15 am
    26   15   16 am
    27   15   41 1
    28   16   17 2
    29   18   19 1
    30   18   32 1
    31   18   20 1
    32   20   22 2
    33   20   29 1
    34   21   29 1
    35   22   23 1
    36   22   30 1
    37   23   24 ar
    38   23   28 ar
    39   24   25 ar
    40   24   42 1
    41   25   26 ar
    42   25   43 1
    43   26   27 ar
    44   26   44 1
    45   27   28 ar
    46   27   45 1
    47   28   29 1
    48   30   31 1
    49   30   46 1
    50   30   47 1
    51   31   32 1
    52   31   48 1
    53   31   49 1
    54   32   50 1
    55   33   51 1
@<TRIPOS>MOLECULE
ZINC41547178
   52    55     0     0     0
SMALL
USER_CHARGES

@<TRIPOS>ATOM
      1 C1         -0.0184    1.5028    0.0103 C.3       1 <0>        -0.1169
      2 C2          0.0021   -0.0041    0.0020 C.ar      1 <0>        -0.0673
      3 C3          0.0058   -0.6869   -1.2004 C.ar      1 <0>        -0.1115
      4 C4          0.0186   -2.0697   -1.2161 C.ar      1 <0>        -0.0940
      5 C5          0.0310   -2.7733   -0.0238 C.ar      1 <0>         0.0657
      6 C6          0.0383   -2.0854    1.1876 C.ar      1 <0>         0.1039
      7 C7          0.0229   -0.6998    1.1967 C.ar      1 <0>        -0.1256
      8 N1          0.0857   -2.8048    2.3895 N.am      1 <0>        -0.6561
      9 C8          0.3418   -4.1293    2.3547 C.2       1 <0>         0.5033
     10 O1          0.2787   -4.7885    3.3709 O.2       1 <0>        -0.4565
     11 C9          0.7062   -4.7866    1.0476 C.3       1 <0>         0.0979
     12 O2          0.0253   -4.1334   -0.0260 O.3       1 <0>        -0.2971
     13 C10         2.2171   -4.6838    0.8297 C.3       1 <0>        -0.1720
     14 C11         0.3038   -6.2384    1.0870 C.2       1 <0>         0.5322
     15 O3          0.2067   -6.8121    2.1512 O.2       1 <0>        -0.4448
     16 N2          0.0518   -6.8992   -0.0603 N.am      1 <0>        -0.6050
     17 C12        -0.3185   -8.2350   -0.0240 C.2       1 <0>         0.0339
     18 C13        -0.6081   -9.0683   -1.0929 C.2       1 <0>        -0.2305
     19 C14        -0.9736  -10.4401   -0.7857 C.2       1 <0>        -0.0622
     20 C15        -0.9822  -10.7271    0.5340 C.2       1 <0>        -0.2203
     21 S1         -0.5118   -9.2165    1.3248 S.3       1 <0>         0.2884
     22 C16        -1.3129  -12.0438    1.1660 C.3       1 <0>        -0.0299
     23 C17        -1.2758  -13.1248    0.0758 C.3       1 <0>        -0.0874
     24 H1         -0.2430  -13.3112   -0.2186 H         1 <0>         0.0764
     25 C18        -2.0740  -12.6346   -1.1357 C.3       1 <0>        -0.1133
     26 C19        -1.3238  -11.4934   -1.8263 C.3       1 <0>        -0.0590
     27 C20        -1.8964  -14.4160    0.6131 C.3       1 <0>        -0.1476
     28 C21        -0.5485   -8.5852   -2.4760 C.2       1 <0>         0.5857
     29 O4          0.4903   -8.6673   -3.1050 O.2       1 <0>        -0.5334
     30 N3         -1.6439   -8.0503   -3.0508 N.am      1 <0>        -0.8474
     31 H2          1.0042    1.8801    0.0026 H         1 <0>         0.0758
     32 H3         -0.5455    1.8639   -0.8728 H         1 <0>         0.0722
     33 H4         -0.5286    1.8543    0.9071 H         1 <0>         0.0697
     34 H5         -0.0018   -0.1383   -2.1307 H         1 <0>         0.1375
     35 H6          0.0193   -2.5999   -2.1570 H         1 <0>         0.1420
     36 H7          0.0229   -0.1646    2.1348 H         1 <0>         0.1362
     37 H8         -0.0634   -2.3558    3.2364 H         1 <0>         0.4219
     38 H9          2.7369   -5.1851    1.6462 H         1 <0>         0.0943
     39 H10         2.4811   -5.1588   -0.1151 H         1 <0>         0.0935
     40 H11         2.5097   -3.6341    0.8029 H         1 <0>         0.0870
     41 H12         0.1294   -6.4404   -0.9113 H         1 <0>         0.4247
     42 H13        -0.5792  -12.2753    1.9382 H         1 <0>         0.0815
     43 H14        -2.3091  -12.0000    1.6063 H         1 <0>         0.0835
     44 H15        -2.2077  -13.4573   -1.8381 H         1 <0>         0.0708
     45 H16        -3.0504  -12.2792   -0.8062 H         1 <0>         0.0671
     46 H17        -1.9581  -11.0515   -2.5948 H         1 <0>         0.0727
     47 H18        -0.4101  -11.8776   -2.2796 H         1 <0>         0.0799
     48 H19        -2.9304  -14.2289    0.9030 H         1 <0>         0.0569
     49 H20        -1.8693  -15.1821   -0.1618 H         1 <0>         0.0583
     50 H21        -1.3317  -14.7568    1.4809 H         1 <0>         0.0580
     51 H22        -2.4717   -7.9850   -2.5495 H         1 <0>         0.4036
     52 H23        -1.6045   -7.7307   -3.9658 H         1 <0>         0.4032
@<TRIPOS>BOND
     1    1    2 1
     2    1   31 1
     3    1   32 1
     4    1   33 1
     5    2    7 ar
     6    2    3 ar
     7    3    4 ar
     8    3   34 1
     9    4    5 ar
    10    4   35 1
    11    5   12 1
    12    5    6 ar
    13    6    7 ar
    14    6    8 1
    15    7   36 1
    16    8    9 am
    17    8   37 1
    18    9   10 2
    19    9   11 1
    20   11   12 1
    21   11   13 1
    22   11   14 1
    23   13   38 1
    24   13   39 1
    25   13   40 1
    26   14   15 2
    27   14   16 am
    28   16   17 1
    29   16   41 1
    30   17   21 1
    31   17   18 2
    32   18   19 1
    33   18   28 1
    34   19   26 1
    35   19   20 2
    36   20   21 1
    37   20   22 1
    38   22   23 1
    39   22   42 1
    40   22   43 1
    41   23   24 1
    42   23   25 1
    43   23   27 1
    44   25   26 1
    45   25   44 1
    46   25   45 1
    47   26   46 1
    48   26   47 1
    49   27   48 1
    50   27   49 1
    51   27   50 1
    52   28   29 2
    53   28   30 am
    54   30   51 1
    55   30   52 1
@<TRIPOS>MOLECULE
ZINC53106976
   35    37     0     0     0
SMALL
USER_CHARGES

@<TRIPOS>ATOM
      1 C1         -1.6460    4.7008   -3.5476 C.ar      1 <0>        -0.0991
      2 C2         -0.4204    5.2745   -3.2809 C.ar      1 <0>        -0.0735
      3 C3          0.0144    5.4044   -1.9596 C.ar      1 <0>        -0.0081
      4 C4         -0.7978    4.9510   -0.9155 C.ar      1 <0>        -0.0069
      5 C5         -2.0230    4.3784   -1.1979 C.ar      1 <0>        -0.0328
      6 C6         -2.4458    4.2538   -2.5106 C.ar      1 <0>        -0.0837
      7 Cl1        -3.0343    3.8142    0.0954 Cl        1 <0>        -0.0370
      8 Cl2        -0.2680    5.1065    0.7303 Cl        1 <0>        -0.0282
      9 C7          1.3245    6.0167   -1.6672 C.2       1 <0>         0.0462
     10 C8          1.5324    7.1458   -0.9053 C.2       1 <0>        -0.1756
     11 C9          2.9085    7.3762   -0.8833 C.2       1 <0>        -0.1343
     12 C10         3.4946    6.3726   -1.6378 C.2       1 <0>        -0.0136
     13 O1          2.5159    5.5628   -2.0949 O.3       1 <0>        -0.1374
     14 C11         4.8723    6.2210   -1.8816 C.2       1 <0>         0.0476
     15 C12         5.3382    5.0990   -2.5421 C.2       1 <0>        -0.0046
     16 C13         6.7370    4.7924   -2.5336 C.1       1 <0>         0.2597
     17 N1          7.8466    4.5492   -2.5269 N.1       1 <0>        -0.3952
     18 C14         4.3939    4.2175   -3.2558 C.ar      1 <0>         0.4815
     19 N2          3.7288    3.2737   -2.5899 N.ar      1 <0>        -0.6044
     20 C15         2.8787    2.4813   -3.2339 C.ar      1 <0>         0.6360
     21 N3          2.6912    2.6294   -4.5419 N.ar      1 <0>        -0.6508
     22 C16         3.3539    3.5703   -5.2078 C.ar      1 <0>         0.6330
     23 N4          3.1577    3.7222   -6.5656 N.pl3     1 <0>        -0.8060
     24 N5          4.2010    4.3678   -4.5660 N.ar      1 <0>        -0.6170
     25 N6          2.1900    1.5035   -2.5447 N.pl3     1 <0>        -0.8051
     26 H1         -1.9845    4.6042   -4.5686 H         1 <0>         0.1462
     27 H2          0.2021    5.6223   -4.0920 H         1 <0>         0.1374
     28 H3         -3.4044    3.8055   -2.7262 H         1 <0>         0.1489
     29 H4          0.7738    7.7402   -0.4177 H         1 <0>         0.1589
     30 H5          3.4185    8.1820   -0.3764 H         1 <0>         0.1667
     31 H6          5.5657    6.9810   -1.5530 H         1 <0>         0.1784
     32 H7          2.5366    3.1426   -7.0338 H         1 <0>         0.4176
     33 H8          2.3825    1.3439   -1.6075 H         1 <0>         0.4190
     34 H9          1.5136    0.9760   -2.9976 H         1 <0>         0.4168
     35 H10         3.6409    4.4086   -7.0517 H         1 <0>         0.4192
@<TRIPOS>BOND
     1    1    6 ar
     2    1    2 ar
     3    1   26 1
     4    2    3 ar
     5    2   27 1
     6    3    4 ar
     7    3    9 1
     8    4    5 ar
     9    4    8 1
    10    5    6 ar
    11    5    7 1
    12    6   28 1
    13    9   13 1
    14    9   10 2
    15   10   11 1
    16   10   29 1
    17   11   12 2
    18   11   30 1
    19   12   13 1
    20   12   14 1
    21   14   15 2
    22   14   31 1
    23   15   16 1
    24   15   18 1
    25   16   17 3
    26   18   24 ar
    27   18   19 ar
    28   19   20 ar
    29   20   21 ar
    30   20   25 1
    31   21   22 ar
    32   22   23 1
    33   22   24 ar
    34   23   32 1
    35   23   35 1
    36   25   33 1
    37   25   34 1
@<TRIPOS>MOLECULE
ZINC04795484
   33    34     0     0     0
SMALL
USER_CHARGES

@<TRIPOS>ATOM
      1 C1          0.2763    1.5889    0.0074 C.3       1 <0>        -0.0978
      2 C2          0.3178    0.0985   -0.2118 C.2       1 <0>         0.2022
      3 C3         -0.8147   -0.6297   -0.1845 C.2       1 <0>        -0.3023
      4 C4         -0.7052   -2.0826   -0.4040 C.2       1 <0>         0.4370
      5 N1          0.5286   -2.6563   -0.3386 N.2       1 <0>        -0.6738
      6 C5          1.6038   -1.9019   -0.3560 C.2       1 <0>         0.6036
      7 N2          1.5133   -0.5416   -0.4491 N.2       1 <0>        -0.6486
      8 N3          2.8405   -2.4912   -0.2842 N.pl3     1 <0>        -0.7093
      9 C6          2.9581   -3.9514   -0.2992 C.3       1 <0>         0.3597
     10 H1          2.0898   -4.3808   -0.7991 H         1 <0>         0.1527
     11 C7          4.2292   -4.3531   -1.0502 C.3       1 <0>         0.0881
     12 Cl1         4.3739   -6.1501   -1.0686 Cl        1 <0>        -0.0644
     13 Cl2         4.1461   -3.7394   -2.7435 Cl        1 <0>        -0.0739
     14 Cl3         5.6655   -3.6429   -0.2234 Cl        1 <0>        -0.0838
     15 O1          3.0240   -4.4378    1.0428 O.3       1 <0>        -0.5293
     16 N4         -1.7749   -2.8094   -0.6570 N.2       1 <0>        -0.4784
     17 N5         -1.6683   -4.2031   -0.7527 N.pl3     1 <0>        -0.2870
     18 C8         -1.9044   -4.7872   -1.9445 C.cat     1 <0>         0.4985
     19 N6         -2.2245   -4.1089   -2.9996 N.pl3     1 <0>        -0.6934
     20 C9         -1.7665   -6.3023   -1.9581 C.3       1 <0>        -0.1165
     21 S1         -1.3101   -6.5988   -0.1999 S.3       1 <0>        -0.0296
     22 C10        -1.3295   -4.8990    0.3473 C.2       1 <0>         0.2495
     23 S2         -0.9955   -4.2941    1.9136 S.2       1 <0>        -0.1772
     24 H2          1.2863    1.9938   -0.0572 H         1 <0>         0.0728
     25 H3         -0.3499    2.0510   -0.7557 H         1 <0>         0.0725
     26 H4         -0.1373    1.7997    0.9936 H         1 <0>         0.0761
     27 H5         -1.7727   -0.1637   -0.0070 H         1 <0>         0.1273
     28 H6          3.6371   -1.9411   -0.2236 H         1 <0>         0.4108
     29 H7          3.7741   -4.0963    1.5486 H         1 <0>         0.3796
     30 H8         -2.3022   -3.1433   -2.9503 H         1 <0>         0.4421
     31 H9         -2.7119   -6.7837   -2.2082 H         1 <0>         0.1751
     32 H10        -0.9719   -6.6214   -2.6325 H         1 <0>         0.1750
     33 H11        -2.3867   -4.5664   -3.8394 H         1 <0>         0.4429
@<TRIPOS>BOND
     1    1    2 1
     2    1   24 1
     3    1   25 1
     4    1   26 1
     5    2    7 1
     6    2    3 2
     7    3    4 1
     8    3   27 1
     9    4    5 1
    10    4   16 2
    11    5    6 2
    12    6    7 1
    13    6    8 1
    14    8    9 1
    15    8   28 1
    16    9   10 1
    17    9   11 1
    18    9   15 1
    19   11   12 1
    20   11   13 1
    21   11   14 1
    22   15   29 1
    23   16   17 1
    24   17   22 1
    25   17   18 1
    26   18   19 2
    27   18   20 1
    28   19   30 1
    29   19   33 1
    30   20   21 1
    31   20   31 1
    32   20   32 1
    33   21   22 1
    34   22   23 2
@<TRIPOS>MOLECULE
ZINC36949904
   33    35     0     0     0
SMALL
USER_CHARGES

@<TRIPOS>ATOM
      1 C1         -0.0167    1.3781    0.0096 C.ar      1 <0>        -0.1105
      2 C2          1.1688    2.0915    0.0021 C.ar      1 <0>        -0.0913
      3 C3          2.3777    1.4189   -0.0131 C.ar      1 <0>         0.1103
      4 C4          2.3966    0.0247   -0.0211 C.ar      1 <0>         0.1157
      5 C5          1.2069   -0.6836   -0.0128 C.ar      1 <0>        -0.0933
      6 C6          0.0021   -0.0041    0.0020 C.ar      1 <0>        -0.1398
      7 C7         -1.2940   -0.7730    0.0110 C.3       1 <0>         0.1517
      8 H1         -1.1102   -1.7908    0.3552 H         1 <0>         0.1618
      9 C8         -1.8660   -0.8096   -1.3827 C.ar      1 <0>        -0.1940
     10 C9         -1.7093   -1.9357   -2.1764 C.ar      1 <0>        -0.0104
     11 C10        -2.2526   -1.9244   -3.4526 C.ar      1 <0>        -0.1413
     12 C11        -2.9277   -0.7981   -3.8875 C.ar      1 <0>         0.1640
     13 N1         -3.0568    0.2546   -3.1043 N.ar      1 <0>        -0.4538
     14 C12        -2.5581    0.2765   -1.8836 C.ar      1 <0>         0.1215
     15 Br1        -2.0722   -3.4292   -4.5836 Br        1 <0>         0.0068
     16 N2         -2.2473   -0.1152    0.9145 N.4       1 <0>        -0.6352
     17 N3          3.6289   -0.6440   -0.0382 N.am      1 <0>        -0.6647
     18 C13         4.7508    0.0430    0.2688 C.2       1 <0>         0.4892
     19 O1          5.8312   -0.5070    0.2305 O.2       1 <0>        -0.4821
     20 C14         4.6548    1.4961    0.6587 C.3       1 <0>         0.0489
     21 O2          3.5524    2.1038   -0.0198 O.3       1 <0>        -0.2929
     22 H2         -0.9603    1.9032    0.0260 H         1 <0>         0.1316
     23 H3          1.1505    3.1713    0.0078 H         1 <0>         0.1557
     24 H4          1.2195   -1.7635   -0.0185 H         1 <0>         0.1458
     25 H5         -1.1767   -2.8007   -1.8098 H         1 <0>         0.1579
     26 H6         -3.3535   -0.7808   -4.8798 H         1 <0>         0.1809
     27 H7         -2.6882    1.1556   -1.2697 H         1 <0>         0.1572
     28 H8         -3.1151   -0.6300    0.9205 H         1 <0>         0.4431
     29 H9         -1.8643   -0.0906    1.8477 H         1 <0>         0.4454
     30 H10         3.6751   -1.5856   -0.2667 H         1 <0>         0.4220
     31 H11         4.5054    1.5737    1.7356 H         1 <0>         0.1110
     32 H12         5.5771    2.0074    0.3830 H         1 <0>         0.1580
     33 H13        -2.4174    0.8270    0.5959 H         1 <0>         0.4308
@<TRIPOS>BOND
     1    1    6 ar
     2    1    2 ar
     3    1   22 1
     4    2    3 ar
     5    2   23 1
     6    3   21 1
     7    3    4 ar
     8    4    5 ar
     9    4   17 1
    10    5    6 ar
    11    5   24 1
    12    6    7 1
    13    7    8 1
    14    7    9 1
    15    7   16 1
    16    9   14 ar
    17    9   10 ar
    18   10   11 ar
    19   10   25 1
    20   11   12 ar
    21   11   15 1
    22   12   13 ar
    23   12   26 1
    24   13   14 ar
    25   14   27 1
    26   16   28 1
    27   16   29 1
    28   16   33 1
    29   17   18 am
    30   17   30 1
    31   18   19 2
    32   18   20 1
    33   20   21 1
    34   20   31 1
    35   20   32 1
@<TRIPOS>MOLECULE
ZINC43260410
   42    43     0     0     0
SMALL
USER_CHARGES

@<TRIPOS>ATOM
      1 C1         -0.3100    1.4078    0.0358 C.3       1 <0>        -0.1821
      2 C2         -0.1436   -0.1129    0.0591 C.3       1 <0>         0.0277
      3 H1         -1.1211   -0.5838    0.1627 H         1 <0>         0.1442
      4 C3          0.7421   -0.5109    1.2415 C.3       1 <0>         0.1527
      5 H2          1.7196   -0.0400    1.1380 H         1 <0>         0.1308
      6 C4          0.0990   -0.0561    2.5263 C.2       1 <0>        -0.2189
      7 C5          0.4815    0.9349    3.3679 C.2       1 <0>        -0.1085
      8 C6         -0.2698    1.1784    4.5026 C.2       1 <0>        -0.1265
      9 C7         -1.3676    0.4179    4.7396 C.2       1 <0>        -0.1610
     10 S1         -1.3687   -0.6780    3.3303 S.3       1 <0>         0.1346
     11 Br1        -2.5852    0.5017    6.1840 Br        1 <0>         0.0572
     12 N1          0.9018   -1.9710    1.2640 N.3       1 <0>        -0.5384
     13 C8         -0.4032   -2.6445    1.2109 C.3       1 <0>         0.0305
     14 C9         -0.1908   -4.1592    1.1559 C.3       1 <0>         0.0581
     15 N2          0.5720   -4.5874    2.3368 N.3       1 <0>        -0.5281
     16 C10         1.8770   -3.9139    2.3899 C.3       1 <0>         0.0518
     17 C11         1.6646   -2.3992    2.4449 C.3       1 <0>         0.0570
     18 C12         0.7317   -6.0475    2.3593 C.3       1 <0>         0.0554
     19 C13         1.3046   -6.4772    3.7114 C.3       1 <0>         0.0776
     20 O1          0.3606   -6.1843    4.7434 O.3       1 <0>        -0.5608
     21 N3          0.4833   -0.5562   -1.1932 N.4       1 <0>        -0.6298
     22 H3          0.6675    1.8788   -0.0678 H         1 <0>         0.0869
     23 H4         -0.9410    1.6914   -0.8066 H         1 <0>         0.0895
     24 H5         -0.7752    1.7368    0.9650 H         1 <0>         0.1084
     25 H6          1.3605    1.5254    3.1554 H         1 <0>         0.1440
     26 H7          0.0133    1.9619    5.1899 H         1 <0>         0.1480
     27 H8         -0.9801   -2.3902    2.1001 H         1 <0>         0.0693
     28 H9         -0.9437   -2.3206    0.3215 H         1 <0>         0.0759
     29 H10        -1.1579   -4.6619    1.1457 H         1 <0>         0.0899
     30 H11         0.3626   -4.4162    0.2527 H         1 <0>         0.0449
     31 H12         2.4175   -4.2379    3.2793 H         1 <0>         0.0898
     32 H13         2.4539   -4.1682    1.5007 H         1 <0>         0.0451
     33 H14         2.6317   -1.8965    2.4551 H         1 <0>         0.0894
     34 H15         1.1112   -2.1422    3.3481 H         1 <0>         0.0646
     35 H16        -0.2381   -6.5215    2.2084 H         1 <0>         0.0874
     36 H17         1.4121   -6.3509    1.5635 H         1 <0>         0.0524
     37 H18         1.5062   -7.5482    3.6967 H         1 <0>         0.0531
     38 H19         2.2311   -5.9356    3.9021 H         1 <0>         0.0449
     39 H20         0.6579   -6.4308    5.6299 H         1 <0>         0.3800
     40 H21         1.3882   -0.1203   -1.2891 H         1 <0>         0.4352
     41 H22         0.5930   -1.5591   -1.1778 H         1 <0>         0.4403
     42 H23        -0.1008   -0.2937   -1.9730 H         1 <0>         0.4372
@<TRIPOS>BOND
     1    1    2 1
     2    1   22 1
     3    1   23 1
     4    1   24 1
     5    2    3 1
     6    2    4 1
     7    2   21 1
     8    4    5 1
     9    4    6 1
    10    4   12 1
    11    6   10 1
    12    6    7 2
    13    7    8 1
    14    7   25 1
    15    8    9 2
    16    8   26 1
    17    9   10 1
    18    9   11 1
    19   12   17 1
    20   12   13 1
    21   13   14 1
    22   13   27 1
    23   13   28 1
    24   14   15 1
    25   14   29 1
    26   14   30 1
    27   15   16 1
    28   15   18 1
    29   16   17 1
    30   16   31 1
    31   16   32 1
    32   17   33 1
    33   17   34 1
    34   18   19 1
    35   18   35 1
    36   18   36 1
    37   19   20 1
    38   19   37 1
    39   19   38 1
    40   20   39 1
    41   21   40 1
    42   21   41 1
    43   21   42 1
@<TRIPOS>MOLECULE
ZINC45069299
   35    35     0     0     0
SMALL
USER_CHARGES

@<TRIPOS>ATOM
      1 C1         -0.0187    1.5258    0.0104 C.3       1 <0>        -0.1842
      2 C2          0.0021   -0.0041    0.0020 C.3       1 <0>         0.0712
      3 H1          0.5293   -0.3651    0.8851 H         1 <0>         0.1558
      4 C3         -1.4117   -0.5257    0.0127 C.ar      1 <0>        -0.0999
      5 C4         -1.9974   -0.9590   -1.1622 C.ar      1 <0>        -0.1195
      6 C5         -3.2938   -1.4379   -1.1529 C.ar      1 <0>        -0.0563
      7 C6         -4.0060   -1.4838    0.0323 C.ar      1 <0>        -0.0711
      8 C7         -3.4206   -1.0505    1.2078 C.ar      1 <0>        -0.0459
      9 C8         -2.1211   -0.5762    1.1989 C.ar      1 <0>        -0.0690
     10 Br1        -1.3171    0.0093    2.8073 Br        1 <0>        -0.0055
     11 Br2        -5.7800   -2.1385    0.0448 Br        1 <0>        -0.0001
     12 N1          0.6897   -0.4778   -1.2066 N.4       1 <0>        -0.5103
     13 C9          2.1002   -0.0703   -1.1590 C.3       1 <0>        -0.0065
     14 C10         2.8163   -0.5637   -2.4178 C.3       1 <0>        -0.1419
     15 C11         4.2854   -0.1392   -2.3683 C.3       1 <0>        -0.6407
     16 S1          5.1345   -0.7243   -3.8608 S.o2      1 <0>         2.6222
     17 O1          5.2178   -2.1428   -3.8523 O.2       1 <0>        -0.9507
     18 O2          4.6473   -0.0340   -5.0034 O.2       1 <0>        -0.9476
     19 N2          6.6988   -0.2081   -3.6904 N.pl3     1 <0>        -1.2453
     20 H2          1.0039    1.9031    0.0027 H         1 <0>         0.0931
     21 H3         -0.5459    1.8868   -0.8726 H         1 <0>         0.0895
     22 H4         -0.5289    1.8773    0.9072 H         1 <0>         0.1123
     23 H5         -1.4419   -0.9229   -2.0876 H         1 <0>         0.1361
     24 H6         -3.7511   -1.7759   -2.0711 H         1 <0>         0.1553
     25 H7         -3.9762   -1.0863    2.1332 H         1 <0>         0.1582
     26 H8          0.6317   -1.4840   -1.2540 H         1 <0>         0.4336
     27 H9          2.1628    1.0167   -1.1079 H         1 <0>         0.1430
     28 H10         2.5740   -0.5034   -0.2781 H         1 <0>         0.1417
     29 H11         2.7537   -1.6507   -2.4690 H         1 <0>         0.1075
     30 H12         2.3425   -0.1306   -3.2988 H         1 <0>         0.1071
     31 H13         4.3481    0.9478   -2.3172 H         1 <0>         0.1460
     32 H14         4.7593   -0.5723   -1.4874 H         1 <0>         0.1487
     33 H15         7.4236   -0.7187   -4.0840 H         1 <0>         0.4284
     34 H16         6.8903    0.6048   -3.1971 H         1 <0>         0.4163
     35 H17         0.2511   -0.0769   -2.0221 H         1 <0>         0.4288
@<TRIPOS>BOND
     1    1    2 1
     2    1   20 1
     3    1   21 1
     4    1   22 1
     5    2    3 1
     6    2    4 1
     7    2   12 1
     8    4    9 ar
     9    4    5 ar
    10    5    6 ar
    11    5   23 1
    12    6    7 ar
    13    6   24 1
    14    7    8 ar
    15    7   11 1
    16    8    9 ar
    17    8   25 1
    18    9   10 1
    19   12   13 1
    20   12   26 1
    21   12   35 1
    22   13   14 1
    23   13   27 1
    24   13   28 1
    25   14   15 1
    26   14   29 1
    27   14   30 1
    28   15   16 1
    29   15   31 1
    30   15   32 1
    31   16   17 2
    32   16   18 2
    33   16   19 1
    34   19   33 1
    35   19   34 1
@<TRIPOS>MOLECULE
ZINC52014075
   43    44     0     0     0
SMALL
USER_CHARGES

@<TRIPOS>ATOM
      1 C1         -0.0167    1.3784    0.0096 C.ar      1 <0>        -0.0878
      2 C2          1.1696    2.0885    0.0021 C.ar      1 <0>        -0.0927
      3 C3          2.3784    1.4176   -0.0131 C.ar      1 <0>        -0.0423
      4 C4          2.4003    0.0299   -0.0207 C.ar      1 <0>         0.1001
      5 C5          1.2079   -0.6803   -0.0132 C.ar      1 <0>        -0.0431
      6 C6          0.0021   -0.0041    0.0020 C.ar      1 <0>        -0.0926
      7 Cl1         1.2305   -2.4162   -0.0233 Cl        1 <0>        -0.0433
      8 O1          3.5875   -0.6324   -0.0361 O.3       1 <0>        -0.2992
      9 C7          4.1666   -0.9553    1.2297 C.3       1 <0>         0.0326
     10 C8          5.4891   -1.6932    1.0121 C.3       1 <0>         0.0891
     11 H1          5.3198   -2.5628    0.3771 H         1 <0>         0.1359
     12 C9          6.0473   -2.1484    2.3620 C.3       1 <0>        -0.0475
     13 N1          7.3171   -2.8568    2.1531 N.4       1 <0>        -0.4981
     14 C10         7.8530   -3.2938    3.4492 C.3       1 <0>         0.0355
     15 H2          7.1035   -3.8897    3.9700 H         1 <0>         0.1486
     16 C11         8.2075   -2.0684    4.2938 C.3       1 <0>        -0.1387
     17 C12         8.7656   -2.5235    5.6437 C.3       1 <0>        -0.1170
     18 C13        10.0215   -3.3678    5.4179 C.3       1 <0>        -0.1274
     19 C14         9.6670   -4.5933    4.5732 C.3       1 <0>        -0.1514
     20 C15         9.1088   -4.1381    3.2233 C.3       1 <0>         0.0887
     21 H3          8.8563   -5.0112    2.6215 H         1 <0>         0.0811
     22 O2         10.0915   -3.3570    2.5405 O.3       1 <0>        -0.5701
     23 O3          6.4250   -0.8173    0.3806 O.3       1 <0>        -0.5390
     24 Cl2         3.8674    2.3101   -0.0231 Cl        1 <0>        -0.0405
     25 H4         -0.9597    1.9045    0.0260 H         1 <0>         0.1522
     26 H5          1.1519    3.1684    0.0077 H         1 <0>         0.1501
     27 H6         -0.9261   -0.5562    0.0083 H         1 <0>         0.1501
     28 H7          4.3500   -0.0384    1.7899 H         1 <0>         0.0717
     29 H8          3.4828   -1.5929    1.7901 H         1 <0>         0.0761
     30 H9          6.2166   -1.2788    2.9970 H         1 <0>         0.1401
     31 H10         5.3334   -2.8165    2.8437 H         1 <0>         0.1461
     32 H11         7.1604   -3.6618    1.5653 H         1 <0>         0.4286
     33 H12         8.9570   -1.4725    3.7730 H         1 <0>         0.0974
     34 H13         7.3128   -1.4669    4.4548 H         1 <0>         0.0843
     35 H14         9.0182   -1.6505    6.2455 H         1 <0>         0.0863
     36 H15         8.0161   -3.1193    6.1646 H         1 <0>         0.0733
     37 H16        10.7710   -2.7720    4.8970 H         1 <0>         0.0776
     38 H17        10.4191   -3.6920    6.3795 H         1 <0>         0.0791
     39 H18        10.5617   -5.1947    4.4122 H         1 <0>         0.0885
     40 H19         8.9175   -5.1891    5.0940 H         1 <0>         0.0838
     41 H20        10.9163   -3.8297    2.3634 H         1 <0>         0.4072
     42 H21         6.6236   -0.0201    0.8907 H         1 <0>         0.3881
     43 H22         7.9779   -2.2383    1.7072 H         1 <0>         0.4386
@<TRIPOS>BOND
     1    1    6 ar
     2    1    2 ar
     3    1   25 1
     4    2    3 ar
     5    2   26 1
     6    3    4 ar
     7    3   24 1
     8    4    5 ar
     9    4    8 1
    10    5    6 ar
    11    5    7 1
    12    6   27 1
    13    8    9 1
    14    9   10 1
    15    9   28 1
    16    9   29 1
    17   10   11 1
    18   10   12 1
    19   10   23 1
    20   12   13 1
    21   12   30 1
    22   12   31 1
    23   13   14 1
    24   13   32 1
    25   13   43 1
    26   14   15 1
    27   14   20 1
    28   14   16 1
    29   16   17 1
    30   16   33 1
    31   16   34 1
    32   17   18 1
    33   17   35 1
    34   17   36 1
    35   18   19 1
    36   18   37 1
    37   18   38 1
    38   19   20 1
    39   19   39 1
    40   19   40 1
    41   20   21 1
    42   20   22 1
    43   22   41 1
    44   23   42 1
@<TRIPOS>MOLECULE
ZINC63151492
   35    36     0     0     0
SMALL
USER_CHARGES

@<TRIPOS>ATOM
      1 C1         -0.0168    1.3910    0.0097 C.ar      1 <0>        -0.0940
      2 C2          1.1702    2.0947    0.0021 C.ar      1 <0>        -0.0033
      3 C3          2.3776    1.4204   -0.0135 C.ar      1 <0>        -0.6488
      4 C4          2.4039    0.0359   -0.0216 C.ar      1 <0>         0.0427
      5 C5          1.2230   -0.6795   -0.0137 C.ar      1 <0>        -0.0943
      6 C6          0.0021   -0.0041    0.0020 C.ar      1 <0>         0.0331
      7 C7         -1.2265   -0.7398    0.0103 C.1       1 <0>        -0.0032
      8 C8         -2.2337   -1.3429    0.0170 C.1       1 <0>        -0.2561
      9 C9         -3.4965   -2.0992    0.0255 C.3       1 <0>         0.1407
     10 N1         -3.2051   -3.5389    0.0149 N.4       1 <0>        -0.6378
     11 Cl1         3.9243   -0.8018   -0.0424 Cl        1 <0>        -0.0148
     12 S1          3.8886    2.3267   -0.0236 S.o2      1 <0>         2.6862
     13 O1          4.6874    1.7729   -1.0601 O.2       1 <0>        -0.9288
     14 O2          3.5370    3.7030    0.0143 O.2       1 <0>        -0.9422
     15 N2          4.6666    1.9975    1.4007 N.pl3     1 <0>        -1.1038
     16 C10         5.1384    0.6392    1.6807 C.3       1 <0>         0.1663
     17 C11         6.1120    0.6726    2.8305 C.2       1 <0>        -0.1409
     18 C12         7.4637    0.8478    2.6003 C.2       1 <0>        -0.1532
     19 C13         8.3125    0.8731    3.6568 C.2       1 <0>        -0.1639
     20 S2          7.1973    0.6449    5.0321 S.3       1 <0>         0.0558
     21 C14         5.6747    0.5368    4.1063 C.2       1 <0>        -0.1607
     22 H1         -0.9588    1.9191    0.0260 H         1 <0>         0.1510
     23 H2          1.1563    3.1746    0.0081 H         1 <0>         0.1682
     24 H3          1.2442   -1.7593   -0.0205 H         1 <0>         0.1506
     25 H4         -4.0633   -1.8498    0.9225 H         1 <0>         0.1573
     26 H5         -4.0810   -1.8402   -0.8573 H         1 <0>         0.1574
     27 H6         -2.6804   -3.7698   -0.8154 H         1 <0>         0.4396
     28 H7         -2.6641   -3.7786    0.8321 H         1 <0>         0.4391
     29 H8          4.8098    2.7041    2.0497 H         1 <0>         0.4260
     30 H9          4.2901    0.0063    1.9412 H         1 <0>         0.0781
     31 H10         5.6337    0.2372    0.7968 H         1 <0>         0.0919
     32 H11         7.8378    0.9625    1.5937 H         1 <0>         0.1386
     33 H12         9.3852    0.9984    3.6645 H         1 <0>         0.1901
     34 H13         4.6667    0.3982    4.4686 H         1 <0>         0.1866
     35 H14        -4.0708   -4.0573    0.0207 H         1 <0>         0.4462
@<TRIPOS>BOND
     1    1    6 ar
     2    1    2 ar
     3    1   22 1
     4    2    3 ar
     5    2   23 1
     6    3    4 ar
     7    3   12 1
     8    4    5 ar
     9    4   11 1
    10    5    6 ar
    11    5   24 1
    12    6    7 1
    13    7    8 3
    14    8    9 1
    15    9   10 1
    16    9   25 1
    17    9   26 1
    18   10   27 1
    19   10   28 1
    20   10   35 1
    21   12   13 2
    22   12   14 2
    23   12   15 1
    24   15   16 1
    25   15   29 1
    26   16   17 1
    27   16   30 1
    28   16   31 1
    29   17   21 2
    30   17   18 1
    31   18   19 2
    32   18   32 1
    33   19   20 1
    34   19   33 1
    35   20   21 1
    36   21   34 1
@<TRIPOS>MOLECULE
ZINC02059246
   31    33     0     0     0
SMALL
USER_CHARGES
5-[[5-(2,6-dibromo-4-nitro-phenyl)-2-furyl]methylene]-2-thioxo-imidazolidin-4-one
@<TRIPOS>ATOM
      1 C1          2.1439    0.7554   -0.0144 C.2       1 <0>        -0.1189
      2 C2          1.3118    1.8292   -0.0006 C.2       1 <0>        -0.1306
      3 C3         -0.0161    1.3397    0.0094 C.2       1 <0>        -0.0045
      4 O1          0.0021   -0.0041    0.0020 O.3       1 <0>        -0.1312
      5 C4          1.2828   -0.4344   -0.0125 C.2       1 <0>        -0.0158
      6 C5          1.7061   -1.7557   -0.0241 C.2       1 <0>         0.0192
      7 C6          0.7639   -2.7936   -0.0206 C.2       1 <0>        -0.0124
      8 C7          1.0366   -4.2596   -0.0315 C.2       1 <0>         0.5505
      9 O2          2.1215   -4.8045   -0.0456 O.2       1 <0>        -0.4376
     10 N1         -0.1758   -4.8542   -0.0224 N.am      1 <0>        -0.6272
     11 C8         -1.1253   -3.9045   -0.0074 C.2       1 <0>         0.5136
     12 S1         -2.8079   -4.2196    0.0080 S.2       1 <0>        -0.4984
     13 N2         -0.5835   -2.6756   -0.0007 N.pl3     1 <0>        -0.5743
     14 C9         -1.1833    2.1417    0.0195 C.ar      1 <0>         0.0799
     15 C10        -1.4747    2.9580    1.1310 C.ar      1 <0>        -0.0719
     16 C11        -2.6096    3.7377    1.1265 C.ar      1 <0>        -0.0104
     17 C12        -3.4703    3.7132    0.0393 C.ar      1 <0>         0.0199
     18 C13        -3.1974    2.9098   -1.0577 C.ar      1 <0>        -0.0100
     19 C14        -2.0659    2.1255   -1.0794 C.ar      1 <0>        -0.0756
     20 Br1        -1.6978    1.0310   -2.5768 Br        1 <0>         0.0221
     21 N3         -4.6906    4.5511    0.0500 N.pl3     1 <0>        -0.0279
     22 O3         -5.5118    4.5317   -0.9794 O.2       1 <0>        -0.1428
     23 O4         -4.9549    5.3161    1.0890 O.3       1 <0>        -0.1435
     24 Br2        -0.3079    2.9884    2.6187 Br        1 <0>         0.0234
     25 H1          3.2237    0.7732   -0.0249 H         1 <0>         0.1769
     26 H2          1.6094    2.8674    0.0021 H         1 <0>         0.1695
     27 H3          2.7615   -1.9845   -0.0357 H         1 <0>         0.1935
     28 H4         -0.3349   -5.8110   -0.0257 H         1 <0>         0.4545
     29 H5         -1.0772   -1.8408    0.0142 H         1 <0>         0.4501
     30 H6         -2.8327    4.3677    1.9748 H         1 <0>         0.1802
     31 H7         -3.8751    2.8995   -1.8986 H         1 <0>         0.1796
@<TRIPOS>BOND
     1    1    5 2
     2    1    2 1
     3    1   25 1
     4    2    3 2
     5    2   26 1
     6    3    4 1
     7    3   14 1
     8    4    5 1
     9    5    6 1
    10    6    7 2
    11    6   27 1
    12    7   13 1
    13    7    8 1
    14    8    9 2
    15    8   10 am
    16   10   11 1
    17   10   28 1
    18   11   12 2
    19   11   13 1
    20   13   29 1
    21   14   19 ar
    22   14   15 ar
    23   15   16 ar
    24   15   24 1
    25   16   17 ar
    26   16   30 1
    27   17   18 ar
    28   17   21 1
    29   18   19 ar
    30   18   31 1
    31   19   20 1
    32   21   22 2
    33   21   23 1
@<TRIPOS>MOLECULE
ZINC00881834
   59    62     0     0     0
SMALL
USER_CHARGES
[(2S,4R)-4-(4-methoxyphenyl)-4',4',5-trimethyl-2'-thioxo-spiro[chroman-2,6'-hexahydropyrimidine]-7-yl] acetate
@<TRIPOS>ATOM
      1 C1         -2.3870   -0.2051    6.7473 C.3       1 <0>        -0.1314
      2 C2         -2.2161    0.8000    5.6375 C.ar      1 <0>        -0.0169
      3 C3         -1.5085    0.4558    4.5032 C.ar      1 <0>        -0.1460
      4 C4         -1.3432    1.3814    3.4828 C.ar      1 <0>         0.1239
      5 C5         -1.8977    2.6450    3.6023 C.ar      1 <0>        -0.1514
      6 C6         -2.6155    2.9878    4.7422 C.ar      1 <0>         0.1479
      7 C7         -2.7744    2.0620    5.7595 C.ar      1 <0>        -0.1539
      8 C8         -3.5498    2.3921    7.0099 C.3       1 <0>         0.0012
      9 H1         -4.5369    1.9328    6.9562 H         1 <0>         0.0945
     10 C9         -3.7008    3.9101    7.1387 C.3       1 <0>        -0.1415
     11 C10        -4.1701    4.4623    5.7883 C.3       1 <0>         0.3149
     12 O1         -3.1430    4.2375    4.8237 O.3       1 <0>        -0.2999
     13 C11        -4.4420    5.9633    5.9161 C.3       1 <0>        -0.1198
     14 C12        -5.0193    6.4695    4.5896 C.3       1 <0>         0.1445
     15 N1         -6.2017    5.6781    4.2463 N.pl3     1 <0>        -0.6597
     16 C13        -6.3277    4.4020    4.6396 C.2       1 <0>         0.5925
     17 S1         -7.7309    3.5345    4.1822 S.2       1 <0>        -0.6510
     18 N2         -5.3963    3.7793    5.3776 N.pl3     1 <0>        -0.6784
     19 C14        -5.4129    7.9411    4.7319 C.3       1 <0>        -0.1560
     20 C15        -3.9686    6.3257    3.4868 C.3       1 <0>        -0.1626
     21 C16        -2.8142    1.8577    8.2117 C.ar      1 <0>        -0.1066
     22 C17        -1.4879    2.1920    8.4139 C.ar      1 <0>        -0.0690
     23 C18        -0.8130    1.7081    9.5178 C.ar      1 <0>        -0.2041
     24 C19        -1.4638    0.8768   10.4179 C.ar      1 <0>         0.1302
     25 C20        -2.7930    0.5383   10.2097 C.ar      1 <0>        -0.1471
     26 C21        -3.4651    1.0294    9.1072 C.ar      1 <0>        -0.0744
     27 O2         -0.8005    0.3953   11.5019 O.3       1 <0>        -0.3161
     28 C22         0.5659    0.7855   11.6525 C.3       1 <0>         0.0260
     29 O3         -0.6436    1.0472    2.3664 O.3       1 <0>        -0.2924
     30 C23         0.6005    1.5399    2.2563 C.2       1 <0>         0.4577
     31 O4          1.0176    2.3173    3.0819 O.2       1 <0>        -0.4928
     32 C24         1.4765    1.1235    1.1030 C.3       1 <0>        -0.1447
     33 H2         -3.4484   -0.3377    6.9571 H         1 <0>         0.0760
     34 H3         -1.9548   -1.1586    6.4437 H         1 <0>         0.0643
     35 H4         -1.8815    0.1540    7.6437 H         1 <0>         0.0932
     36 H5         -1.0803   -0.5315    4.4120 H         1 <0>         0.1353
     37 H6         -1.7723    3.3656    2.8077 H         1 <0>         0.1343
     38 H7         -2.7411    4.3538    7.4036 H         1 <0>         0.1028
     39 H8         -4.4383    4.1423    7.9070 H         1 <0>         0.1010
     40 H9         -5.1592    6.1384    6.7180 H         1 <0>         0.1056
     41 H10        -3.5109    6.4867    6.1335 H         1 <0>         0.1161
     42 H11        -6.9098    6.0854    3.7232 H         1 <0>         0.4320
     43 H12        -5.5390    2.8576    5.6438 H         1 <0>         0.4296
     44 H13        -4.5328    8.5290    4.9926 H         1 <0>         0.0828
     45 H14        -5.8233    8.3004    3.7882 H         1 <0>         0.0726
     46 H15        -6.1629    8.0425    5.5163 H         1 <0>         0.0690
     47 H16        -3.8219    5.2696    3.2603 H         1 <0>         0.0787
     48 H17        -4.3084    6.8456    2.5911 H         1 <0>         0.0638
     49 H18        -3.0269    6.7593    3.8234 H         1 <0>         0.0757
     50 H19        -0.9804    2.8356    7.7106 H         1 <0>         0.1231
     51 H20         0.2218    1.9730    9.6777 H         1 <0>         0.1294
     52 H21        -3.3019   -0.1083   10.9091 H         1 <0>         0.1339
     53 H22        -4.5000    0.7665    8.9449 H         1 <0>         0.1327
     54 H23         1.1370    0.4499   10.7868 H         1 <0>         0.0566
     55 H24         0.6274    1.8710   11.7298 H         1 <0>         0.0564
     56 H25         0.9755    0.3330   12.5556 H         1 <0>         0.1022
     57 H26         0.9331    0.4237    0.4682 H         1 <0>         0.0953
     58 H27         2.3770    0.6431    1.4857 H         1 <0>         0.1102
     59 H28         1.7531    2.0026    0.5209 H         1 <0>         0.1096
@<TRIPOS>BOND
     1    1    2 1
     2    1   33 1
     3    1   34 1
     4    1   35 1
     5    2    7 ar
     6    2    3 ar
     7    3    4 ar
     8    3   36 1
     9    4    5 ar
    10    4   29 1
    11    5    6 ar
    12    5   37 1
    13    6   12 1
    14    6    7 ar
    15    7    8 1
    16    8    9 1
    17    8   10 1
    18    8   21 1
    19   10   11 1
    20   10   38 1
    21   10   39 1
    22   11   18 1
    23   11   12 1
    24   11   13 1
    25   13   14 1
    26   13   40 1
    27   13   41 1
    28   14   15 1
    29   14   19 1
    30   14   20 1
    31   15   16 1
    32   15   42 1
    33   16   17 2
    34   16   18 1
    35   18   43 1
    36   19   44 1
    37   19   45 1
    38   19   46 1
    39   20   47 1
    40   20   48 1
    41   20   49 1
    42   21   26 ar
    43   21   22 ar
    44   22   23 ar
    45   22   50 1
    46   23   24 ar
    47   23   51 1
    48   24   25 ar
    49   24   27 1
    50   25   26 ar
    51   25   52 1
    52   26   53 1
    53   27   28 1
    54   28   54 1
    55   28   55 1
    56   28   56 1
    57   29   30 1
    58   30   31 2
    59   30   32 1
    60   32   57 1
    61   32   58 1
    62   32   59 1
@<TRIPOS>MOLECULE
ZINC20060419
   45    48     0     0     0
SMALL
USER_CHARGES
(6S,7R)-N-(2-bromo-4-methyl-phenyl)-6-(4-chlorophenyl)-3-methyl-6,7-dihydro-5H-[1,2,4]triazolo[3,4-b][1,3,4]thiadiazine-7-carboxamide
@<TRIPOS>ATOM
      1 C1         -7.5295   -2.3497   -0.8851 C.3       1 <0>        -0.1171
      2 C2         -6.1344   -1.9324   -0.4971 C.ar      1 <0>        -0.0950
      3 C3         -5.3605   -1.2047   -1.3827 C.ar      1 <0>        -0.0809
      4 C4         -4.0833   -0.8164   -1.0287 C.ar      1 <0>        -0.1215
      5 C5         -3.5724   -1.1652    0.2145 C.ar      1 <0>         0.1768
      6 C6         -4.3522   -1.8958    1.1024 C.ar      1 <0>        -0.1192
      7 C7         -5.6311   -2.2775    0.7435 C.ar      1 <0>        -0.0703
      8 Br1        -3.6648   -2.3670    2.7998 Br        1 <0>        -0.0433
      9 N1         -2.2770   -0.7765    0.5747 N.am      1 <0>        -0.6732
     10 C8         -1.3584   -0.5274   -0.3796 C.2       1 <0>         0.5426
     11 O1         -1.6225   -0.7359   -1.5448 O.2       1 <0>        -0.4882
     12 C9         -0.0031    0.0103    0.0012 C.3       1 <0>        -0.1516
     13 H1          0.2259   -0.5378    0.9270 H         1 <0>         0.1305
     14 C10         1.0414   -0.4360   -1.0302 C.3       1 <0>         0.2184
     15 H2          0.9286    0.1301   -1.9666 H         1 <0>         0.1036
     16 N2          2.3935   -0.1710   -0.5366 N.3       1 <0>        -0.6195
     17 N3          2.6305    1.1391   -0.2689 N.pl3     1 <0>        -0.2407
     18 C11         3.8397    1.7690   -0.1940 C.2       1 <0>         0.1790
     19 N4          3.6089    3.0191    0.1003 N.2       1 <0>        -0.2734
     20 N5          2.3415    3.2222    0.2113 N.2       1 <0>        -0.2425
     21 C12         1.7022    2.1073   -0.0099 C.2       1 <0>         0.1266
     22 S1         -0.0408    1.8283    0.0048 S.3       1 <0>         0.1085
     23 C13         5.1907    1.1372   -0.4104 C.3       1 <0>        -0.0705
     24 C14         0.8862   -1.9124   -1.2896 C.ar      1 <0>        -0.1030
     25 C15         1.4227   -2.8295   -0.4052 C.ar      1 <0>        -0.1006
     26 C16         1.2758   -4.1837   -0.6397 C.ar      1 <0>        -0.1113
     27 C17         0.6013   -4.6213   -1.7656 C.ar      1 <0>        -0.0196
     28 C18         0.0695   -3.7030   -2.6533 C.ar      1 <0>        -0.1090
     29 C19         0.2121   -2.3491   -2.4148 C.ar      1 <0>        -0.0486
     30 Cl1         0.4230   -6.3220   -2.0647 Cl        1 <0>        -0.0610
     31 H3         -7.7518   -1.9872   -1.8996 H         1 <0>         0.0699
     32 H4         -8.2516   -1.9195   -0.1755 H         1 <0>         0.0734
     33 H5         -7.6034   -3.4470   -0.8634 H         1 <0>         0.0728
     34 H6         -5.7570   -0.9362   -2.3507 H         1 <0>         0.1341
     35 H7         -3.4811   -0.2449   -1.7195 H         1 <0>         0.1546
     36 H8         -6.2381   -2.8455    1.4330 H         1 <0>         0.1369
     37 H9         -2.0087   -0.6743    1.6366 H         1 <0>         0.4390
     38 H10         3.1068   -0.9995   -0.4150 H         1 <0>         0.4684
     39 H11         5.9756    1.8973   -0.2829 H         1 <0>         0.1046
     40 H12         5.2431    0.7232   -1.4282 H         1 <0>         0.0854
     41 H13         5.3395    0.3300    0.3219 H         1 <0>         0.0820
     42 H14         1.9530   -2.4877    0.4713 H         1 <0>         0.1314
     43 H15         1.6912   -4.9000    0.0536 H         1 <0>         0.1377
     44 H16        -0.4574   -4.0441   -3.5322 H         1 <0>         0.1387
     45 H17        -0.2027   -1.6322   -3.1079 H         1 <0>         0.1453
@<TRIPOS>BOND
     1    1    2 1
     2    1   31 1
     3    1   32 1
     4    1   33 1
     5    2    7 ar
     6    2    3 ar
     7    3    4 ar
     8    3   34 1
     9    4    5 ar
    10    4   35 1
    11    5    6 ar
    12    5    9 1
    13    6    7 ar
    14    6    8 1
    15    7   36 1
    16    9   10 am
    17    9   37 1
    18   10   11 2
    19   10   12 1
    20   12   13 1
    21   12   22 1
    22   12   14 1
    23   14   15 1
    24   14   16 1
    25   14   24 1
    26   16   17 1
    27   16   38 1
    28   17   21 1
    29   17   18 1
    30   18   19 2
    31   18   23 1
    32   19   20 1
    33   20   21 2
    34   21   22 1
    35   23   39 1
    36   23   40 1
    37   23   41 1
    38   24   29 ar
    39   24   25 ar
    40   25   26 ar
    41   25   42 1
    42   26   27 ar
    43   26   43 1
    44   27   28 ar
    45   27   30 1
    46   28   29 ar
    47   28   44 1
    48   29   45 1
@<TRIPOS>MOLECULE
ZINC39795189
   46    49     0     0     0
SMALL
USER_CHARGES

@<TRIPOS>ATOM
      1 C1         -0.0168    1.5028    0.0117 C.3       1 <0>        -0.1195
      2 C2          0.0031   -0.0041    0.0029 C.ar      1 <0>        -0.0647
      3 C3         -1.1812   -0.7104    0.1064 C.ar      1 <0>        -0.1105
      4 C4         -1.1662   -2.0915    0.0986 C.ar      1 <0>        -0.0874
      5 C5          0.0396   -2.7705   -0.0132 C.ar      1 <0>         0.0905
      6 C6          1.2270   -2.0586   -0.1169 C.ar      1 <0>        -0.0872
      7 C7          1.2050   -0.6776   -0.1142 C.ar      1 <0>        -0.1105
      8 N1          0.0581   -4.1720   -0.0209 N.am      1 <0>        -0.5354
      9 C8          0.1678   -4.8280    1.1213 C.2       1 <0>         0.5566
     10 O1          0.2526   -4.2330    2.1806 O.2       1 <0>        -0.4590
     11 C9          0.1834   -6.2550    1.0761 C.2       1 <0>        -0.2138
     12 C10         0.2857   -7.1549    2.0971 C.2       1 <0>         0.1051
     13 C11         0.2803   -8.5391    1.8209 C.2       1 <0>        -0.0239
     14 C12         0.3711   -9.5552    2.7558 C.2       1 <0>        -0.1219
     15 C13         0.3275  -10.7588    2.0477 C.2       1 <0>        -0.1830
     16 C14         0.2132  -10.4431    0.7232 C.2       1 <0>         0.0566
     17 O2          0.1799   -9.1039    0.5992 O.3       1 <0>        -0.1452
     18 C15         0.1332  -11.4115   -0.3875 C.ar      1 <0>         0.0324
     19 C16         0.1666  -12.7836   -0.1262 C.ar      1 <0>        -0.1142
     20 C17         0.0914  -13.6828   -1.1692 C.ar      1 <0>        -0.0137
     21 C18        -0.0170  -13.2290   -2.4720 C.ar      1 <0>        -0.6691
     22 C19        -0.0507  -11.8714   -2.7383 C.ar      1 <0>        -0.0131
     23 C20         0.0178  -10.9606   -1.7049 C.ar      1 <0>        -0.1174
     24 S1         -0.1120  -14.3852   -3.7982 S.o2      1 <0>         2.7013
     25 O3          0.3412  -13.7068   -4.9617 O.2       1 <0>        -0.9589
     26 O4          0.4891  -15.5861   -3.3338 O.2       1 <0>        -0.9596
     27 N2         -1.7153  -14.7215   -4.0407 N.pl3     1 <0>        -1.2491
     28 S2          0.0324   -6.5420   -0.6818 S.3       1 <0>        -0.0310
     29 C21        -0.0419   -4.8327   -1.1957 C.2       1 <0>         0.5474
     30 O5         -0.1528   -4.3784   -2.3187 O.2       1 <0>        -0.4004
     31 H1         -0.1187    1.8708   -1.0092 H         1 <0>         0.0767
     32 H2         -0.8590    1.8515    0.6094 H         1 <0>         0.0712
     33 H3          0.9128    1.8759    0.4413 H         1 <0>         0.0711
     34 H4         -2.1188   -0.1816    0.1937 H         1 <0>         0.1342
     35 H5         -2.0914   -2.6426    0.1798 H         1 <0>         0.1269
     36 H6          2.1665   -2.5841   -0.2040 H         1 <0>         0.1271
     37 H7          2.1280   -0.1232   -0.1993 H         1 <0>         0.1343
     38 H8          0.3707   -6.8079    3.1163 H         1 <0>         0.1890
     39 H9          0.4590   -9.4401    3.8261 H         1 <0>         0.1708
     40 H10         0.3752  -11.7524    2.4683 H         1 <0>         0.1659
     41 H11         0.2515  -13.1392    0.8901 H         1 <0>         0.1437
     42 H12         0.1175  -14.7437   -0.9687 H         1 <0>         0.1528
     43 H13        -0.1355  -11.5243   -3.7575 H         1 <0>         0.1514
     44 H14        -0.0135   -9.9015   -1.9137 H         1 <0>         0.1436
     45 H15        -2.3891  -14.2957   -3.4880 H         1 <0>         0.4172
     46 H16        -1.9805  -15.3442   -4.7355 H         1 <0>         0.4227
@<TRIPOS>BOND
     1    1    2 1
     2    1   31 1
     3    1   32 1
     4    1   33 1
     5    2    7 ar
     6    2    3 ar
     7    3    4 ar
     8    3   34 1
     9    4    5 ar
    10    4   35 1
    11    5    6 ar
    12    5    8 1
    13    6    7 ar
    14    6   36 1
    15    7   37 1
    16    8   29 am
    17    8    9 am
    18    9   10 2
    19    9   11 1
    20   11   12 2
    21   11   28 1
    22   12   13 1
    23   12   38 1
    24   13   17 1
    25   13   14 2
    26   14   15 1
    27   14   39 1
    28   15   16 2
    29   15   40 1
    30   16   17 1
    31   16   18 1
    32   18   23 ar
    33   18   19 ar
    34   19   20 ar
    35   19   41 1
    36   20   21 ar
    37   20   42 1
    38   21   22 ar
    39   21   24 1
    40   22   23 ar
    41   22   43 1
    42   23   44 1
    43   24   25 2
    44   24   26 2
    45   24   27 1
    46   27   45 1
    47   27   46 1
    48   28   29 1
    49   29   30 2
@<TRIPOS>MOLECULE
ZINC59669750
   50    53     0     0     0
SMALL
USER_CHARGES

@<TRIPOS>ATOM
      1 C1          0.5664    1.5139   -0.0988 C.3       1 <0>        -0.1153
      2 C2          0.5285    0.0074   -0.1087 C.ar      1 <0>        -0.0943
      3 C3          0.5288   -0.6749   -1.3117 C.ar      1 <0>        -0.1061
      4 C4          0.4941   -2.0553   -1.3242 C.ar      1 <0>        -0.1204
      5 C5          0.4592   -2.7585   -0.1269 C.ar      1 <0>         0.1330
      6 C6          0.4594   -2.0705    1.0791 C.ar      1 <0>        -0.1084
      7 C7          0.4991   -0.6897    1.0849 C.ar      1 <0>        -0.1021
      8 C8          0.4216   -2.8295    2.3805 C.3       1 <0>        -0.1176
      9 N1          0.4235   -4.1573   -0.1362 N.am      1 <0>        -0.6599
     10 C9         -0.0850   -4.8114   -1.1992 C.2       1 <0>         0.5339
     11 O1         -0.4916   -4.1882   -2.1570 O.2       1 <0>        -0.4990
     12 C10        -0.1483   -6.3171   -1.1977 C.3       1 <0>        -0.1354
     13 H1          0.7099   -6.7155   -0.6566 H         1 <0>         0.1151
     14 C11        -1.4406   -6.7723   -0.5103 C.3       1 <0>         0.1645
     15 H2         -2.3013   -6.4155   -1.0760 H         1 <0>         0.0892
     16 N2         -1.4552   -8.2473   -0.4640 N.pl3     1 <0>        -0.7024
     17 C12        -1.0577   -8.9017   -1.6226 C.2       1 <0>         0.5213
     18 N3         -1.1796  -10.1589   -1.9533 N.2       1 <0>        -0.5684
     19 C13        -0.6579  -10.3533   -3.1693 C.2       1 <0>         0.2189
     20 N4         -0.1959   -9.2163   -3.6261 N.2       1 <0>        -0.3057
     21 N5         -0.4406   -8.2575   -2.6424 N.pl3     1 <0>        -0.4074
     22 C14        -0.1233   -6.8301   -2.6429 C.3       1 <0>         0.2257
     23 H3         -0.8630   -6.2910   -3.2347 H         1 <0>         0.1162
     24 C15         1.2485   -6.6191   -3.2300 C.ar      1 <0>        -0.0828
     25 C16         2.3488   -7.2216   -2.6493 C.ar      1 <0>        -0.0889
     26 C17         3.6071   -7.0288   -3.1877 C.ar      1 <0>        -0.0906
     27 C18         3.7653   -6.2328   -4.3079 C.ar      1 <0>        -0.0778
     28 C19         2.6640   -5.6301   -4.8887 C.ar      1 <0>        -0.0893
     29 C20         1.4054   -5.8278   -4.3526 C.ar      1 <0>        -0.0762
     30 Br1         5.4866   -5.9680   -5.0446 Br        1 <0>        -0.0441
     31 C21        -1.4916   -6.2097    0.9116 C.3       1 <0>        -0.1753
     32 H4          1.6029    1.8512   -0.0863 H         1 <0>         0.0707
     33 H5          0.0708    1.8958   -0.9914 H         1 <0>         0.0669
     34 H6          0.0531    1.8845    0.7885 H         1 <0>         0.0661
     35 H7          0.5560   -0.1275   -2.2423 H         1 <0>         0.1255
     36 H8          0.4937   -2.5876   -2.2639 H         1 <0>         0.1503
     37 H9          0.5034   -0.1541    2.0227 H         1 <0>         0.1263
     38 H10         1.4398   -3.0384    2.7089 H         1 <0>         0.0725
     39 H11        -0.0880   -2.2309    3.1355 H         1 <0>         0.0743
     40 H12        -0.1141   -3.7680    2.2384 H         1 <0>         0.0616
     41 H13         0.7647   -4.6562    0.6225 H         1 <0>         0.4119
     42 H14        -1.7267   -8.7323    0.3310 H         1 <0>         0.4303
     43 H15        -0.6234  -11.2979   -3.6917 H         1 <0>         0.2195
     44 H16         2.2253   -7.8428   -1.7745 H         1 <0>         0.1231
     45 H17         4.4667   -7.4992   -2.7337 H         1 <0>         0.1351
     46 H18         2.7870   -5.0086   -5.7633 H         1 <0>         0.1379
     47 H19         0.5449   -5.3606   -4.8085 H         1 <0>         0.1369
     48 H20        -1.3552   -5.1288    0.8798 H         1 <0>         0.0831
     49 H21        -2.4581   -6.4410    1.3594 H         1 <0>         0.0825
     50 H22        -0.6978   -6.6587    1.5087 H         1 <0>         0.0754
@<TRIPOS>BOND
     1    1    2 1
     2    1   32 1
     3    1   33 1
     4    1   34 1
     5    2    7 ar
     6    2    3 ar
     7    3    4 ar
     8    3   35 1
     9    4    5 ar
    10    4   36 1
    11    5    6 ar
    12    5    9 1
    13    6    7 ar
    14    6    8 1
    15    7   37 1
    16    8   38 1
    17    8   39 1
    18    8   40 1
    19    9   10 am
    20    9   41 1
    21   10   11 2
    22   10   12 1
    23   12   13 1
    24   12   22 1
    25   12   14 1
    26   14   15 1
    27   14   16 1
    28   14   31 1
    29   16   17 1
    30   16   42 1
    31   17   21 1
    32   17   18 2
    33   18   19 1
    34   19   20 2
    35   19   43 1
    36   20   21 1
    37   21   22 1
    38   22   23 1
    39   22   24 1
    40   24   29 ar
    41   24   25 ar
    42   25   26 ar
    43   25   44 1
    44   26   27 ar
    45   26   45 1
    46   27   28 ar
    47   27   30 1
    48   28   29 ar
    49   28   46 1
    50   29   47 1
    51   31   48 1
    52   31   49 1
    53   31   50 1
@<TRIPOS>MOLECULE
ZINC02434748
   63    67     0     0     0
SMALL
USER_CHARGES
(2,5-dimethylphenyl)sulfonyl-[(4-isopropylphenyl)methyleneamino]BLAHamine
@<TRIPOS>ATOM
      1 C1         -9.1639    9.7199    5.5979 C.3       1 <0>        -0.1158
      2 C2         -8.1168    9.2599    6.5792 C.ar      1 <0>        -0.1146
      3 C3         -7.3289   10.1877    7.2349 C.ar      1 <0>        -0.0602
      4 C4         -6.3682    9.7658    8.1345 C.ar      1 <0>        -0.1403
      5 C5         -6.1951    8.4160    8.3787 C.ar      1 <0>         0.0238
      6 C6         -6.9827    7.4886    7.7233 C.ar      1 <0>        -0.6613
      7 C7         -7.9402    7.9103    6.8194 C.ar      1 <0>        -0.0254
      8 S1         -6.7618    5.7683    8.0341 S.o2      1 <0>         2.6233
      9 O1         -7.6872    5.0830    7.2015 O.2       1 <0>        -0.9571
     10 O2         -6.7450    5.6097    9.4462 O.2       1 <0>        -0.9160
     11 C8         -5.1527    5.3376    7.4598 C.2       1 <0>        -0.8158
     12 C9         -3.9598    5.3768    8.2221 C.ar      1 <0>         0.2063
     13 C10        -2.8892    4.9341    7.3193 C.ar      1 <0>         0.2879
     14 N1         -1.6527    4.8686    7.7586 N.ar      1 <0>        -0.4329
     15 C11        -1.3761    5.2075    9.0246 C.ar      1 <0>         0.0963
     16 C12        -0.0545    5.1411    9.5030 C.ar      1 <0>        -0.0849
     17 C13         0.2179    5.4863   10.7905 C.ar      1 <0>        -0.0999
     18 C14        -0.7960    5.9065   11.6499 C.ar      1 <0>        -0.1009
     19 C15        -2.0856    5.9832   11.2243 C.ar      1 <0>        -0.0807
     20 C16        -2.4072    5.6347    9.8985 C.ar      1 <0>         0.0911
     21 N2         -3.6726    5.7074    9.4706 N.ar      1 <0>        -0.4038
     22 N3         -3.4932    4.6653    6.1068 N.pl3     1 <0>        -0.3630
     23 C17        -4.8405    4.9180    6.2111 C.2       1 <0>         0.5604
     24 N4         -5.7527    4.7611    5.1824 N.pl3     1 <0>        -0.8218
     25 N5         -2.8374    4.2134    4.9541 N.2       1 <0>        -0.2669
     26 C18        -2.7039    2.9406    4.7404 C.2       1 <0>         0.2053
     27 C19        -2.0136    2.4650    3.5270 C.ar      1 <0>        -0.0957
     28 C20        -1.8681    1.0955    3.2937 C.ar      1 <0>        -0.0663
     29 C21        -1.2217    0.6578    2.1565 C.ar      1 <0>        -0.1258
     30 C22        -0.7181    1.5718    1.2479 C.ar      1 <0>        -0.0380
     31 C23        -0.8540    2.9300    1.4751 C.ar      1 <0>        -0.1247
     32 C24        -1.5027    3.3819    2.6054 C.ar      1 <0>        -0.0569
     33 C25        -0.0127    1.0858    0.0080 C.3       1 <0>        -0.0640
     34 C26         1.4227    1.6154   -0.0028 C.3       1 <0>        -0.1468
     35 C27        -0.7527    1.5927   -1.2315 C.3       1 <0>        -0.1462
     36 C28        -5.1472    7.9560    9.3593 C.3       1 <0>        -0.1702
     37 H1         -8.7261    9.7815    4.6016 H         1 <0>         0.0723
     38 H2         -9.9902    9.0090    5.5883 H         1 <0>         0.0708
     39 H3         -9.5329   10.7019    5.8939 H         1 <0>         0.0694
     40 H4         -7.4638   11.2420    7.0438 H         1 <0>         0.1301
     41 H5         -5.7524   10.4905    8.6464 H         1 <0>         0.1319
     42 H6         -8.5527    7.1854    6.3039 H         1 <0>         0.1428
     43 H7          0.7420    4.8175    8.8494 H         1 <0>         0.1363
     44 H8          1.2342    5.4337   11.1520 H         1 <0>         0.1353
     45 H9         -0.5544    6.1744   12.6679 H         1 <0>         0.1364
     46 H10        -2.8608    6.3101   11.9015 H         1 <0>         0.1436
     47 H11        -5.4545    4.4521    4.3127 H         1 <0>         0.4143
     48 H12        -6.6904    4.9601    5.3311 H         1 <0>         0.4392
     49 H13        -3.0983    2.2295    5.4511 H         1 <0>         0.1295
     50 H14        -2.2604    0.3810    4.0023 H         1 <0>         0.1326
     51 H15        -1.1088   -0.4008    1.9747 H         1 <0>         0.1324
     52 H16        -0.4545    3.6378    0.7639 H         1 <0>         0.1305
     53 H17        -1.6117    4.4422    2.7794 H         1 <0>         0.1362
     54 H18         0.0021   -0.0041    0.0020 H         1 <0>         0.0823
     55 H19         1.9329    1.2639   -0.8996 H         1 <0>         0.0623
     56 H20         1.4079    2.7053    0.0031 H         1 <0>         0.0585
     57 H21         1.9499    1.2543    0.8802 H         1 <0>         0.0577
     58 H22        -0.2425    1.2411   -2.1283 H         1 <0>         0.0622
     59 H23        -1.7753    1.2154   -1.2238 H         1 <0>         0.0575
     60 H24        -0.7675    2.6825   -1.2255 H         1 <0>         0.0584
     61 H25        -4.2047    7.7964    8.8356 H         1 <0>         0.0767
     62 H26        -5.0112    8.7159   10.1288 H         1 <0>         0.0790
     63 H27        -5.4679    7.0230    9.8227 H         1 <0>         0.1233
@<TRIPOS>BOND
     1    1    2 1
     2    1   37 1
     3    1   38 1
     4    1   39 1
     5    2    7 ar
     6    2    3 ar
     7    3    4 ar
     8    3   40 1
     9    4    5 ar
    10    4   41 1
    11    5    6 ar
    12    5   36 1
    13    6    7 ar
    14    6    8 1
    15    7   42 1
    16    8    9 2
    17    8   10 2
    18    8   11 1
    19   11   23 2
    20   11   12 1
    21   12   21 ar
    22   12   13 ar
    23   13   14 ar
    24   13   22 1
    25   14   15 ar
    26   15   20 ar
    27   15   16 ar
    28   16   17 ar
    29   16   43 1
    30   17   18 ar
    31   17   44 1
    32   18   19 ar
    33   18   45 1
    34   19   20 ar
    35   19   46 1
    36   20   21 ar
    37   22   23 1
    38   22   25 1
    39   23   24 1
    40   24   47 1
    41   24   48 1
    42   25   26 2
    43   26   27 1
    44   26   49 1
    45   27   32 ar
    46   27   28 ar
    47   28   29 ar
    48   28   50 1
    49   29   30 ar
    50   29   51 1
    51   30   31 ar
    52   30   33 1
    53   31   32 ar
    54   31   52 1
    55   32   53 1
    56   33   34 1
    57   33   35 1
    58   33   54 1
    59   34   55 1
    60   34   56 1
    61   34   57 1
    62   35   58 1
    63   35   59 1
    64   35   60 1
    65   36   61 1
    66   36   62 1
    67   36   63 1
@<TRIPOS>MOLECULE
ZINC01856207
   60    63     0     0     0
SMALL
USER_CHARGES
(3R,4R)-5-cyano-6-[2-[(4-methoxyphenyl)amino]-2-oxo-ethyl]sulfanyl-2-methyl-N-phenyl-4-(2-thienyl)-3,4-dihydropyridine-3-carboxamide
@<TRIPOS>ATOM
      1 C1          5.1090   -5.5757   -9.3457 C.2       1 <0>        -0.1438
      2 C2          5.3163   -4.1311   -9.7215 C.2       1 <0>         0.0240
      3 N1          4.6267   -3.2181   -9.1296 N.2       1 <0>        -0.4916
      4 C3          4.7669   -1.9013   -9.4337 C.2       1 <0>         0.1447
      5 C4          5.3449   -1.5167  -10.6100 C.3       1 <0>        -0.0213
      6 C5          5.8300   -2.5672  -11.5780 C.3       1 <0>         0.0676
      7 H1          6.6477   -2.1636  -12.1751 H         1 <0>         0.1295
      8 C6          6.3172   -3.7825  -10.7903 C.3       1 <0>        -0.0948
      9 H2          6.4259   -4.5589  -11.4112 H         1 <0>         0.1208
     10 C7          7.6408   -3.4599  -10.1458 C.2       1 <0>         0.5235
     11 O1          8.1405   -2.3659  -10.3017 O.2       1 <0>        -0.5150
     12 N2          8.2690   -4.3872   -9.3962 N.am      1 <0>        -0.6608
     13 C8          9.4424   -4.0545   -8.7105 C.ar      1 <0>         0.1421
     14 C9         10.4334   -5.0093   -8.5230 C.ar      1 <0>        -0.1429
     15 C10        11.5923   -4.6766   -7.8495 C.ar      1 <0>        -0.0995
     16 C11        11.7622   -3.3972   -7.3531 C.ar      1 <0>        -0.1317
     17 C12        10.7754   -2.4455   -7.5337 C.ar      1 <0>        -0.0996
     18 C13         9.6162   -2.7705   -8.2107 C.ar      1 <0>        -0.1200
     19 C14         4.6987   -2.9793  -12.4843 C.2       1 <0>        -0.1624
     20 C15         4.6136   -2.8972  -13.8347 C.2       1 <0>        -0.1355
     21 C16         3.4652   -3.3421  -14.4622 C.2       1 <0>        -0.1606
     22 C17         2.4580   -3.8473  -13.7087 C.2       1 <0>        -0.1717
     23 S1          3.1261   -3.7093  -12.0589 S.3       1 <0>         0.0736
     24 C18         5.4887   -0.1266  -10.9223 C.1       1 <0>         0.2183
     25 N3          5.6028    0.9762  -11.1700 N.1       1 <0>        -0.3731
     26 S2          4.1979   -0.6784   -8.2999 S.3       1 <0>         0.0552
     27 C19         3.5487   -1.7436   -6.9883 C.3       1 <0>        -0.1454
     28 C20         2.9926   -0.8904   -5.8776 C.2       1 <0>         0.5281
     29 O2          3.0312    0.3188   -5.9642 O.2       1 <0>        -0.5032
     30 N4          2.4521   -1.4710   -4.7880 N.am      1 <0>        -0.6625
     31 C21         1.8388   -0.6826   -3.8055 C.ar      1 <0>         0.1046
     32 C22         1.1728    0.4815   -4.1649 C.ar      1 <0>        -0.0783
     33 C23         0.5682    1.2578   -3.1962 C.ar      1 <0>        -0.1311
     34 C24         0.6257    0.8747   -1.8642 C.ar      1 <0>         0.1174
     35 C25         1.2955   -0.2853   -1.5038 C.ar      1 <0>        -0.1893
     36 C26         1.8964   -1.0652   -2.4721 C.ar      1 <0>        -0.1005
     37 O3          0.0301    1.6397   -0.9108 O.3       1 <0>        -0.3164
     38 C27         0.1287    1.1854    0.4405 C.3       1 <0>         0.0261
     39 H3          6.0832   -1.2786   -9.9789 H         1 <0>         0.1463
     40 H4          4.8071   -5.6395   -8.3003 H         1 <0>         0.1433
     41 H5          5.3110   -6.2085  -10.2100 H         1 <0>         0.1410
     42 H6          7.9077   -5.2851   -9.3321 H         1 <0>         0.4145
     43 H7         10.2995   -6.0098   -8.9069 H         1 <0>         0.1267
     44 H8         12.3648   -5.4176   -7.7067 H         1 <0>         0.1279
     45 H9         12.6677   -3.1406   -6.8235 H         1 <0>         0.1247
     46 H10        10.9110   -1.4471   -7.1449 H         1 <0>         0.1264
     47 H11         8.8457   -2.0268   -8.3515 H         1 <0>         0.1305
     48 H12         5.4310   -2.4906  -14.4116 H         1 <0>         0.1345
     49 H13         3.3719   -3.2884  -15.5367 H         1 <0>         0.1355
     50 H14         1.5013   -4.2362  -14.0247 H         1 <0>         0.1863
     51 H15         4.3511   -2.3699   -6.5985 H         1 <0>         0.1308
     52 H16         2.7578   -2.3757   -7.3918 H         1 <0>         0.1375
     53 H17         2.4878   -2.4347   -4.6839 H         1 <0>         0.4139
     54 H18         1.1279    0.7798   -5.2020 H         1 <0>         0.1423
     55 H19         0.0500    2.1633   -3.4756 H         1 <0>         0.1364
     56 H20         1.3437   -0.5807   -0.4660 H         1 <0>         0.1337
     57 H21         2.4143   -1.9705   -2.1918 H         1 <0>         0.1299
     58 H22        -0.3296    0.2002    0.5270 H         1 <0>         0.0562
     59 H23         1.1784    1.1244    0.7276 H         1 <0>         0.0560
     60 H24        -0.3875    1.8852    1.0977 H         1 <0>         0.1014
@<TRIPOS>BOND
     1    1   40 1
     2    1   41 1
     3    1    2 2
     4    2    8 1
     5    2    3 1
     6    3    4 2
     7    4   26 1
     8    4    5 1
     9    5    6 1
    10    5   24 1
    11    5   39 1
    12    6    7 1
    13    6    8 1
    14    6   19 1
    15    8    9 1
    16    8   10 1
    17   10   11 2
    18   10   12 am
    19   12   13 1
    20   12   42 1
    21   13   18 ar
    22   13   14 ar
    23   14   15 ar
    24   14   43 1
    25   15   16 ar
    26   15   44 1
    27   16   17 ar
    28   16   45 1
    29   17   18 ar
    30   17   46 1
    31   18   47 1
    32   19   23 1
    33   19   20 2
    34   20   21 1
    35   20   48 1
    36   21   22 2
    37   21   49 1
    38   22   23 1
    39   22   50 1
    40   24   25 3
    41   26   27 1
    42   27   28 1
    43   27   51 1
    44   27   52 1
    45   28   29 2
    46   28   30 am
    47   30   31 1
    48   30   53 1
    49   31   36 ar
    50   31   32 ar
    51   32   33 ar
    52   32   54 1
    53   33   34 ar
    54   33   55 1
    55   34   35 ar
    56   34   37 1
    57   35   36 ar
    58   35   56 1
    59   36   57 1
    60   37   38 1
    61   38   58 1
    62   38   59 1
    63   38   60 1
@<TRIPOS>MOLECULE
ZINC20883891
   72    76     0     0     0
SMALL
USER_CHARGES
(6R,9R)-9-(4-isopropoxyphenyl)-6-(2,4,5-trimethoxyphenyl)-5,6,8,9,10,11-hexahydrobenzo[c][1,5]benzodiazepin-7-one
@<TRIPOS>ATOM
      1 C1          8.8272   12.2133    6.9661 C.3       1 <0>        -0.1506
      2 C2          7.8748   11.8696    5.8190 C.3       1 <0>         0.0756
      3 C3          8.5846   12.0935    4.4823 C.3       1 <0>        -0.1814
      4 O1          7.4771   10.5010    5.9239 O.3       1 <0>        -0.3160
      5 C4          6.3108   10.1495    5.3213 C.ar      1 <0>         0.1354
      6 C5          5.5306   11.1147    4.7013 C.ar      1 <0>        -0.2100
      7 C6          4.3453   10.7549    4.0899 C.ar      1 <0>        -0.0698
      8 C7          3.9365    9.4340    4.0950 C.ar      1 <0>        -0.1210
      9 C8          4.7095    8.4711    4.7171 C.ar      1 <0>        -0.0730
     10 C9          5.8983    8.8250    5.3255 C.ar      1 <0>        -0.1509
     11 C10         2.6432    9.0442    3.4268 C.3       1 <0>        -0.0319
     12 H1          2.2026    9.9554    2.9959 H         1 <0>         0.0901
     13 C11         1.6992    8.4180    4.4518 C.3       1 <0>        -0.1015
     14 C12         0.3989    8.0126    3.7768 C.2       1 <0>         0.2673
     15 C13         0.3987    7.5891    2.5024 C.2       1 <0>        -0.3066
     16 C14        -0.8081    7.1206    1.7241 C.3       1 <0>         0.3017
     17 H2         -0.8489    7.6960    0.7875 H         1 <0>         0.0938
     18 N1         -2.0769    7.3979    2.3638 N.pl3     1 <0>        -0.7760
     19 C15        -2.4183    6.8024    3.5769 C.ar      1 <0>         0.1765
     20 C16        -3.4391    5.8693    3.6619 C.ar      1 <0>        -0.1254
     21 C17        -3.6731    5.2250    4.8644 C.ar      1 <0>        -0.1101
     22 C18        -2.8969    5.5089    5.9733 C.ar      1 <0>        -0.1252
     23 C19        -1.8897    6.4558    5.8969 C.ar      1 <0>        -0.1165
     24 C20        -1.6658    7.1131    4.6996 C.ar      1 <0>         0.1158
     25 N2         -0.7014    8.1054    4.5659 N.pl3     1 <0>        -0.6964
     26 C21        -0.6935    5.6327    1.5142 C.ar      1 <0>        -0.0999
     27 C22         0.1779    4.8910    2.2904 C.ar      1 <0>        -0.1144
     28 C23         0.2812    3.5228    2.1025 C.ar      1 <0>         0.0610
     29 C24        -0.4846    2.8958    1.1241 C.ar      1 <0>         0.1377
     30 C25        -1.3570    3.6402    0.3474 C.ar      1 <0>        -0.2644
     31 C26        -1.4617    5.0094    0.5427 C.ar      1 <0>         0.1524
     32 O2         -2.3180    5.7409   -0.2194 O.3       1 <0>        -0.3039
     33 C27        -3.0780    5.0340   -1.2016 C.3       1 <0>         0.0238
     34 O3         -0.3806    1.5532    0.9346 O.3       1 <0>        -0.3030
     35 C28        -1.2012    0.9761   -0.0831 C.3       1 <0>         0.0231
     36 O4          1.1349    2.7927    2.8705 O.3       1 <0>        -0.3061
     37 C29         1.8105    3.4821    3.9243 C.3       1 <0>         0.0265
     38 C30         1.6039    7.5564    1.7618 C.2       1 <0>         0.3957
     39 O5          1.5754    7.1565    0.6144 O.2       1 <0>        -0.4663
     40 C31         2.9147    7.9967    2.3408 C.3       1 <0>        -0.1611
     41 H3          8.3168   12.0523    7.9271 H         1 <0>         0.0659
     42 H4          9.1332   13.2668    6.8854 H         1 <0>         0.0792
     43 H5          9.7162   11.5679    6.9104 H         1 <0>         0.0692
     44 H6          6.9470   12.4573    5.8811 H         1 <0>         0.0745
     45 H7          7.8998   11.8464    3.6576 H         1 <0>         0.0630
     46 H8          9.4736   11.4481    4.4266 H         1 <0>         0.0697
     47 H9          8.8906   13.1470    4.4016 H         1 <0>         0.0740
     48 H10         5.8498   12.1464    4.6965 H         1 <0>         0.1304
     49 H11         3.7375   11.5059    3.6072 H         1 <0>         0.1249
     50 H12         4.3857    7.4408    4.7239 H         1 <0>         0.1268
     51 H13         6.5041    8.0717    5.8071 H         1 <0>         0.1302
     52 H14         2.1732    7.5278    4.8909 H         1 <0>         0.0942
     53 H15         1.4838    9.1480    5.2459 H         1 <0>         0.0875
     54 H16        -2.7910    8.0892    1.8925 H         1 <0>         0.4142
     55 H17        -4.0472    5.6469    2.7974 H         1 <0>         0.1209
     56 H18        -4.4669    4.4963    4.9372 H         1 <0>         0.1201
     57 H19        -3.0773    4.9897    6.9030 H         1 <0>         0.1226
     58 H20        -1.2845    6.6791    6.7630 H         1 <0>         0.1231
     59 H21        -0.8784    9.0154    5.1580 H         1 <0>         0.4256
     60 H22         0.7751    5.3784    3.0469 H         1 <0>         0.1328
     61 H23        -1.9554    3.1548   -0.4093 H         1 <0>         0.1390
     62 H24        -3.7249    5.7402   -1.7427 H         1 <0>         0.1012
     63 H25        -3.6992    4.2730   -0.7067 H         1 <0>         0.0523
     64 H26        -2.3949    4.5447   -1.9115 H         1 <0>         0.0534
     65 H27        -1.0192   -0.1077   -0.1300 H         1 <0>         0.1032
     66 H28        -0.9560    1.4315   -1.0539 H         1 <0>         0.0546
     67 H29        -2.2600    1.1604    0.1513 H         1 <0>         0.0539
     68 H30         2.4643    2.7796    4.4620 H         1 <0>         0.1013
     69 H31         1.0704    3.9013    4.6218 H         1 <0>         0.0512
     70 H32         2.4169    4.2960    3.5003 H         1 <0>         0.0493
     71 H33         3.5420    8.4394    1.5531 H         1 <0>         0.0982
     72 H34         3.4362    7.1356    2.7841 H         1 <0>         0.0987
@<TRIPOS>BOND
     1    1    2 1
     2    1   41 1
     3    1   42 1
     4    1   43 1
     5    2    3 1
     6    2    4 1
     7    2   44 1
     8    3   45 1
     9    3   46 1
    10    3   47 1
    11    4    5 1
    12    5   10 ar
    13    5    6 ar
    14    6    7 ar
    15    6   48 1
    16    7    8 ar
    17    7   49 1
    18    8    9 ar
    19    8   11 1
    20    9   10 ar
    21    9   50 1
    22   10   51 1
    23   11   12 1
    24   11   40 1
    25   11   13 1
    26   13   14 1
    27   13   52 1
    28   13   53 1
    29   14   25 1
    30   14   15 2
    31   15   16 1
    32   15   38 1
    33   16   17 1
    34   16   18 1
    35   16   26 1
    36   18   19 1
    37   18   54 1
    38   19   24 ar
    39   19   20 ar
    40   20   21 ar
    41   20   55 1
    42   21   22 ar
    43   21   56 1
    44   22   23 ar
    45   22   57 1
    46   23   24 ar
    47   23   58 1
    48   24   25 1
    49   25   59 1
    50   26   31 ar
    51   26   27 ar
    52   27   28 ar
    53   27   60 1
    54   28   29 ar
    55   28   36 1
    56   29   30 ar
    57   29   34 1
    58   30   31 ar
    59   30   61 1
    60   31   32 1
    61   32   33 1
    62   33   62 1
    63   33   63 1
    64   33   64 1
    65   34   35 1
    66   35   65 1
    67   35   66 1
    68   35   67 1
    69   36   37 1
    70   37   68 1
    71   37   69 1
    72   37   70 1
    73   38   39 2
    74   38   40 1
    75   40   71 1
    76   40   72 1
@<TRIPOS>MOLECULE
ZINC36066347
   76    81     0     0     0
SMALL
USER_CHARGES

@<TRIPOS>ATOM
      1 C1         -1.7900    1.2972   -1.3726 C.3       1 <0>        -0.1139
      2 C2         -1.6707   -0.2050   -1.3725 C.ar      1 <0>        -0.1036
      3 C3         -0.6426   -0.8155   -0.6774 C.ar      1 <0>        -0.1009
      4 C4         -0.5305   -2.1919   -0.6754 C.ar      1 <0>        -0.1225
      5 C5         -1.4518   -2.9632   -1.3720 C.ar      1 <0>         0.1567
      6 C6         -2.4831   -2.3473   -2.0685 C.ar      1 <0>        -0.1352
      7 C7         -2.5925   -0.9703   -2.0626 C.ar      1 <0>        -0.0699
      8 C8         -3.7147   -0.3011   -2.8136 C.3       1 <0>        -0.1149
      9 N1         -1.3408   -4.3581   -1.3723 N.am      1 <0>        -0.6606
     10 C9         -0.1237   -4.9372   -1.3687 C.2       1 <0>         0.5346
     11 O1          0.8733   -4.2526   -1.2778 O.2       1 <0>        -0.5004
     12 C10        -0.0018   -6.4353   -1.4776 C.3       1 <0>        -0.1193
     13 H1         -0.8770   -6.9275   -1.0535 H         1 <0>         0.1165
     14 C11         1.3098   -6.9406   -0.7941 C.3       1 <0>         0.1061
     15 H2          1.5146   -6.5254    0.1927 H         1 <0>         0.1451
     16 C12         1.2928   -8.4714   -0.8746 C.2       1 <0>        -0.1542
     17 C13         1.5340   -8.8058   -2.1484 C.2       1 <0>        -0.1570
     18 C14         1.6555   -7.4953   -2.8399 C.3       1 <0>         0.1028
     19 C15         0.2174   -6.8651   -2.9392 C.3       1 <0>        -0.1463
     20 H3         -0.5278   -7.5823   -3.2832 H         1 <0>         0.1359
     21 C16         0.4422   -5.7354   -3.9041 C.2       1 <0>         0.5469
     22 O2         -0.2284   -4.7271   -3.9728 O.2       1 <0>        -0.4901
     23 N2          1.5142   -6.0205   -4.6860 N.am      1 <0>        -0.5909
     24 C17         2.1604   -7.3134   -4.2371 C.3       1 <0>         0.1453
     25 H4          3.2444   -7.1991   -4.2398 H         1 <0>         0.1239
     26 C18         1.7483   -8.4756   -5.1033 C.2       1 <0>         0.5147
     27 O3          0.7945   -8.3708   -5.8451 O.2       1 <0>        -0.5122
     28 N3          2.4395   -9.6315   -5.0537 N.am      1 <0>        -0.7211
     29 C19         2.0389  -10.7614   -5.8958 C.3       1 <0>         0.1457
     30 C20         0.9400  -11.5587   -5.1904 C.3       1 <0>        -0.1287
     31 C21         0.5215  -12.7386   -6.0699 C.3       1 <0>        -0.1178
     32 C22         1.7297  -13.6441   -6.3172 C.3       1 <0>        -0.1228
     33 C23         2.8287  -12.8468   -7.0226 C.3       1 <0>        -0.1166
     34 C24         3.2471  -11.6668   -6.1432 C.3       1 <0>        -0.1270
     35 C25         1.9578   -5.2044   -5.8189 C.3       1 <0>         0.2041
     36 H5          2.0226   -5.8266   -6.7116 H         1 <0>         0.0844
     37 C26         0.9545   -4.0740   -6.0569 C.3       1 <0>        -0.1441
     38 C27         3.3125   -4.6181   -5.5158 C.ar      1 <0>        -0.1100
     39 C28         3.6236   -4.2268   -4.2270 C.ar      1 <0>        -0.0889
     40 C29         4.8664   -3.6891   -3.9489 C.ar      1 <0>        -0.1174
     41 C30         5.7982   -3.5430   -4.9595 C.ar      1 <0>        -0.1173
     42 C31         5.4874   -3.9352   -6.2481 C.ar      1 <0>        -0.1223
     43 C32         4.2462   -4.4769   -6.5254 C.ar      1 <0>        -0.1109
     44 O4          2.2870   -6.6138   -1.8478 O.3       1 <0>        -0.3154
     45 H6         -2.4088    1.6126   -0.5325 H         1 <0>         0.0682
     46 H7         -0.7985    1.7405   -1.2800 H         1 <0>         0.0644
     47 H8         -2.2490    1.6252   -2.3052 H         1 <0>         0.0668
     48 H9          0.0735   -0.2152   -0.1359 H         1 <0>         0.1222
     49 H10         0.2729   -2.6680   -0.1330 H         1 <0>         0.1351
     50 H11        -3.2010   -2.9443   -2.6112 H         1 <0>         0.1219
     51 H12        -3.3952   -0.0930   -3.8347 H         1 <0>         0.0702
     52 H13        -4.5831   -0.9597   -2.8317 H         1 <0>         0.0649
     53 H14        -3.9775    0.6332   -2.3175 H         1 <0>         0.0691
     54 H15        -2.1396   -4.9082   -1.3752 H         1 <0>         0.4067
     55 H16         1.1186   -9.1536   -0.0556 H         1 <0>         0.1578
     56 H17         1.6205   -9.7948   -2.5735 H         1 <0>         0.1621
     57 H18         3.2024   -9.7153   -4.4605 H         1 <0>         0.4024
     58 H19         1.6628  -10.3889   -6.8487 H         1 <0>         0.0903
     59 H20         1.3160  -11.9311   -4.2375 H         1 <0>         0.0647
     60 H21         0.0792  -10.9136   -5.0142 H         1 <0>         0.0672
     61 H22        -0.2614  -13.3067   -5.5674 H         1 <0>         0.0661
     62 H23         0.1455  -12.3662   -7.0228 H         1 <0>         0.0648
     63 H24         2.1058  -14.0165   -5.3643 H         1 <0>         0.0633
     64 H25         1.4316  -14.4847   -6.9438 H         1 <0>         0.0650
     65 H26         3.6894  -13.4918   -7.1988 H         1 <0>         0.0688
     66 H27         2.4526  -12.4743   -7.9755 H         1 <0>         0.0655
     67 H28         4.0300  -11.0988   -6.6457 H         1 <0>         0.0700
     68 H29         3.6231  -12.0393   -5.1903 H         1 <0>         0.0698
     69 H30         0.8897   -3.4518   -5.1643 H         1 <0>         0.0809
     70 H31         1.2846   -3.4668   -6.8998 H         1 <0>         0.0637
     71 H32        -0.0254   -4.4980   -6.2762 H         1 <0>         0.0658
     72 H33         2.8957   -4.3409   -3.4374 H         1 <0>         0.1277
     73 H34         5.1092   -3.3827   -2.9421 H         1 <0>         0.1210
     74 H35         6.7688   -3.1222   -4.7424 H         1 <0>         0.1207
     75 H36         6.2152   -3.8208   -7.0378 H         1 <0>         0.1219
     76 H37         4.0047   -4.7867   -7.5314 H         1 <0>         0.1204
@<TRIPOS>BOND
     1    1    2 1
     2    1   45 1
     3    1   46 1
     4    1   47 1
     5    2    7 ar
     6    2    3 ar
     7    3    4 ar
     8    3   48 1
     9    4    5 ar
    10    4   49 1
    11    5    6 ar
    12    5    9 1
    13    6    7 ar
    14    6   50 1
    15    7    8 1
    16    8   51 1
    17    8   52 1
    18    8   53 1
    19    9   10 am
    20    9   54 1
    21   10   11 2
    22   10   12 1
    23   12   13 1
    24   12   19 1
    25   12   14 1
    26   14   15 1
    27   14   44 1
    28   14   16 1
    29   16   17 2
    30   16   55 1
    31   17   18 1
    32   17   56 1
    33   18   24 1
    34   18   19 1
    35   18   44 1
    36   19   20 1
    37   19   21 1
    38   21   22 2
    39   21   23 am
    40   23   24 1
    41   23   35 1
    42   24   25 1
    43   24   26 1
    44   26   27 2
    45   26   28 am
    46   28   29 1
    47   28   57 1
    48   29   34 1
    49   29   30 1
    50   29   58 1
    51   30   31 1
    52   30   59 1
    53   30   60 1
    54   31   32 1
    55   31   61 1
    56   31   62 1
    57   32   33 1
    58   32   63 1
    59   32   64 1
    60   33   34 1
    61   33   65 1
    62   33   66 1
    63   34   67 1
    64   34   68 1
    65   35   36 1
    66   35   37 1
    67   35   38 1
    68   37   69 1
    69   37   70 1
    70   37   71 1
    71   38   43 ar
    72   38   39 ar
    73   39   40 ar
    74   39   72 1
    75   40   41 ar
    76   40   73 1
    77   41   42 ar
    78   41   74 1
    79   42   43 ar
    80   42   75 1
    81   43   76 1
@<TRIPOS>MOLECULE
ZINC41023406
   55    58     0     0     0
SMALL
USER_CHARGES

@<TRIPOS>ATOM
      1 C1          0.3086    1.6181    0.0927 C.3       1 <0>        -0.1459
      2 C2          0.3345    0.0884    0.1124 C.3       1 <0>        -0.1103
      3 C3          0.9939   -0.4270   -1.1685 C.3       1 <0>        -0.1064
      4 S1          1.0245   -2.2406   -1.1452 S.3       1 <0>         0.0210
      5 C4          1.8030   -2.6733   -2.6655 C.2       1 <0>         0.2233
      6 N1          2.2534   -1.8062   -3.5841 N.2       1 <0>        -0.5424
      7 C5          2.7747   -2.4628   -4.5847 C.2       1 <0>         0.5143
      8 N2          2.6616   -3.7884   -4.3235 N.pl3     1 <0>        -0.3898
      9 N3          2.0412   -3.8991   -3.0801 N.2       1 <0>        -0.2647
     10 C6          3.1299   -4.8335   -5.2300 C.3       1 <0>         0.3306
     11 H1          3.7117   -5.5659   -4.6705 H         1 <0>         0.1390
     12 C7          3.9921   -4.2193   -6.3004 C.2       1 <0>        -0.3062
     13 C8          4.0675   -2.8970   -6.5105 C.2       1 <0>         0.2302
     14 N4          3.3654   -1.9940   -5.7502 N.pl3     1 <0>        -0.6066
     15 C9          4.9526   -2.3847   -7.6174 C.3       1 <0>        -0.1372
     16 C10         4.7591   -5.0775   -7.1231 C.2       1 <0>         0.5929
     17 O1          5.8124   -5.5318   -6.7141 O.2       1 <0>        -0.5046
     18 N5          4.3242   -5.3921   -8.3593 N.am      1 <0>        -0.6603
     19 C11         5.0339   -6.3125   -9.1370 C.ar      1 <0>         0.1429
     20 C12         6.4195   -6.3702   -9.0559 C.ar      1 <0>        -0.1218
     21 C13         7.1173   -7.2802   -9.8253 C.ar      1 <0>        -0.1037
     22 C14         6.4382   -8.1335  -10.6759 C.ar      1 <0>        -0.1283
     23 C15         5.0591   -8.0786  -10.7590 C.ar      1 <0>        -0.0691
     24 C16         4.3547   -7.1746   -9.9879 C.ar      1 <0>        -0.1071
     25 C17         2.8512   -7.1197  -10.0744 C.3       1 <0>        -0.1168
     26 C18         4.3233   -9.0102  -11.6872 C.3       1 <0>        -0.1168
     27 C19         1.9456   -5.5134   -5.8673 C.2       1 <0>        -0.0181
     28 C20         1.6391   -6.8190   -5.7645 C.2       1 <0>        -0.1647
     29 C21         0.4571   -7.0227   -6.5132 C.2       1 <0>        -0.1496
     30 C22         0.1117   -5.8283   -7.0292 C.2       1 <0>        -0.0220
     31 O2          1.0138   -4.9170   -6.6297 O.3       1 <0>        -0.1509
     32 Br1        -1.3923   -5.4896   -8.1243 Br        1 <0>         0.0593
     33 H2          1.3284    1.9980    0.0308 H         1 <0>         0.0581
     34 H3         -0.2599    1.9608   -0.7719 H         1 <0>         0.0579
     35 H4         -0.1611    1.9853    1.0052 H         1 <0>         0.0634
     36 H5          0.9030   -0.2542    0.9769 H         1 <0>         0.0748
     37 H6         -0.6853   -0.2914    0.1743 H         1 <0>         0.0745
     38 H7          0.4253   -0.0843   -2.0330 H         1 <0>         0.0933
     39 H8          2.0136   -0.0471   -1.2304 H         1 <0>         0.0939
     40 H9          3.2852   -1.0650   -6.0173 H         1 <0>         0.4425
     41 H10         4.3586   -2.2392   -8.5196 H         1 <0>         0.0997
     42 H11         5.3966   -1.4354   -7.3177 H         1 <0>         0.0947
     43 H12         5.7427   -3.1089   -7.8154 H         1 <0>         0.0966
     44 H13         3.5189   -4.9802   -8.7096 H         1 <0>         0.4104
     45 H14         6.9504   -5.7040   -8.3921 H         1 <0>         0.1383
     46 H15         8.1945   -7.3253   -9.7629 H         1 <0>         0.1258
     47 H16         6.9863   -8.8440  -11.2768 H         1 <0>         0.1231
     48 H17         2.5575   -6.4142  -10.8516 H         1 <0>         0.0704
     49 H18         2.4649   -8.1096  -10.3175 H         1 <0>         0.0747
     50 H19         2.4437   -6.7957   -9.1168 H         1 <0>         0.0613
     51 H20         4.0729   -9.9288  -11.1566 H         1 <0>         0.0717
     52 H21         3.4084   -8.5299  -12.0340 H         1 <0>         0.0687
     53 H22         4.9566   -9.2459  -12.5426 H         1 <0>         0.0681
     54 H23         2.1904   -7.5681   -5.2156 H         1 <0>         0.1626
     55 H24        -0.0676   -7.9573   -6.6461 H         1 <0>         0.1653
@<TRIPOS>BOND
     1    1    2 1
     2    1   33 1
     3    1   34 1
     4    1   35 1
     5    2    3 1
     6    2   36 1
     7    2   37 1
     8    3    4 1
     9    3   38 1
    10    3   39 1
    11    4    5 1
    12    5    9 2
    13    5    6 1
    14    6    7 2
    15    7   14 1
    16    7    8 1
    17    8    9 1
    18    8   10 1
    19   10   11 1
    20   10   12 1
    21   10   27 1
    22   12   13 2
    23   12   16 1
    24   13   14 1
    25   13   15 1
    26   14   40 1
    27   15   41 1
    28   15   42 1
    29   15   43 1
    30   16   17 2
    31   16   18 am
    32   18   19 1
    33   18   44 1
    34   19   24 ar
    35   19   20 ar
    36   20   21 ar
    37   20   45 1
    38   21   22 ar
    39   21   46 1
    40   22   23 ar
    41   22   47 1
    42   23   24 ar
    43   23   26 1
    44   24   25 1
    45   25   48 1
    46   25   49 1
    47   25   50 1
    48   26   51 1
    49   26   52 1
    50   26   53 1
    51   27   31 1
    52   27   28 2
    53   28   29 1
    54   28   54 1
    55   29   30 2
    56   29   55 1
    57   30   31 1
    58   30   32 1
@<TRIPOS>MOLECULE
ZINC03011148
   48    52     0     0     0
SMALL
USER_CHARGES

@<TRIPOS>ATOM
      1 C1          0.0649    1.2422   -0.6207 C.ar      1 <0>        -0.0776
      2 C2          1.2502    1.9521   -0.6186 C.ar      1 <0>        -0.1173
      3 C3          2.3819    1.4103   -0.0241 C.ar      1 <0>         0.1744
      4 C4          2.3188    0.1543    0.5675 C.ar      1 <0>        -0.0679
      5 C5          1.1294   -0.5512    0.5621 C.ar      1 <0>        -0.0094
      6 C6          0.0038   -0.0070   -0.0318 C.ar      1 <0>        -0.1171
      7 Cl1         1.0482   -2.1205    1.3000 Cl        1 <0>        -0.0422
      8 Cl2         3.7310   -0.5281    1.3117 Cl        1 <0>        -0.0407
      9 N1          3.5834    2.1270   -0.0211 N.am      1 <0>        -0.6544
     10 C7          3.5664    3.4714   -0.1160 C.2       1 <0>         0.6096
     11 O1          2.5073    4.0684   -0.1029 O.2       1 <0>        -0.4940
     12 C8          4.8343    4.2193   -0.2358 C.2       1 <0>         0.0623
     13 C9          4.9627    5.6233   -0.3369 C.2       1 <0>        -0.2596
     14 C10         6.2770    5.9063   -0.4274 C.2       1 <0>         0.3663
     15 N2          6.9695    4.7293   -0.3886 N.pl3     1 <0>        -0.3919
     16 N3          6.0461    3.6925   -0.2615 N.2       1 <0>        -0.2463
     17 C11         8.4304    4.6425   -0.4678 C.3       1 <0>         0.1246
     18 H1          8.8425    4.5019    0.5315 H         1 <0>         0.1373
     19 C12         8.9729    5.9444   -1.0683 C.3       1 <0>        -0.1496
     20 C13         8.3735    7.1480   -0.3329 C.3       1 <0>         0.2042
     21 H2          8.7992    8.0692   -0.7307 H         1 <0>         0.1258
     22 N4          6.9122    7.1462   -0.5422 N.pl3     1 <0>        -0.7207
     23 C14         8.6778    7.0444    1.1395 C.ar      1 <0>        -0.1115
     24 C15         7.9195    6.2140    1.9437 C.ar      1 <0>        -0.1049
     25 C16         8.1951    6.1152    3.2948 C.ar      1 <0>        -0.0951
     26 C17         9.2325    6.8494    3.8463 C.ar      1 <0>         0.0428
     27 C18         9.9963    7.6859    3.0361 C.ar      1 <0>         0.0362
     28 C19         9.7181    7.7755    1.6818 C.ar      1 <0>        -0.0833
     29 O2         10.9453    8.2926    3.8073 O.3       1 <0>        -0.3058
     30 C20        10.4963    8.1328    5.1660 C.3       1 <0>         0.2126
     31 O3          9.7030    6.9319    5.1250 O.3       1 <0>        -0.3061
     32 C21         8.8262    3.4614   -1.3562 C.3       1 <0>         0.4553
     33 F1          8.3009    3.6467   -2.6396 F         1 <0>        -0.1719
     34 F2         10.2209    3.3805   -1.4304 F         1 <0>        -0.1708
     35 F3          8.3187    2.2772   -0.8111 F         1 <0>        -0.1597
     36 H3         -0.8164    1.6658   -1.0792 H         1 <0>         0.1455
     37 H4          1.2964    2.9277   -1.0794 H         1 <0>         0.1619
     38 H5         -0.9242   -0.5595   -0.0351 H         1 <0>         0.1453
     39 H6          4.4287    1.6565    0.0492 H         1 <0>         0.4231
     40 H7          4.1541    6.3392   -0.3411 H         1 <0>         0.1669
     41 H8         10.0583    5.9637   -0.9698 H         1 <0>         0.1243
     42 H9          8.7055    5.9951   -2.1238 H         1 <0>         0.1067
     43 H10         6.4218    7.9574   -0.7477 H         1 <0>         0.4307
     44 H11         7.1099    5.6415    1.5157 H         1 <0>         0.1386
     45 H12         7.6011    5.4657    3.9207 H         1 <0>         0.1381
     46 H13        10.3116    8.4200    1.0504 H         1 <0>         0.1418
     47 H14        11.3455    8.0082    5.8379 H         1 <0>         0.1357
     48 H15         9.8872    8.9839    5.4707 H         1 <0>         0.0881
@<TRIPOS>BOND
     1    1    6 ar
     2    1    2 ar
     3    1   36 1
     4    2    3 ar
     5    2   37 1
     6    3    4 ar
     7    3    9 1
     8    4    5 ar
     9    4    8 1
    10    5    6 ar
    11    5    7 1
    12    6   38 1
    13    9   10 am
    14    9   39 1
    15   10   11 2
    16   10   12 1
    17   12   16 2
    18   12   13 1
    19   13   14 2
    20   13   40 1
    21   14   22 1
    22   14   15 1
    23   15   16 1
    24   15   17 1
    25   17   18 1
    26   17   19 1
    27   17   32 1
    28   19   20 1
    29   19   41 1
    30   19   42 1
    31   20   21 1
    32   20   22 1
    33   20   23 1
    34   22   43 1
    35   23   28 ar
    36   23   24 ar
    37   24   25 ar
    38   24   44 1
    39   25   26 ar
    40   25   45 1
    41   26   31 1
    42   26   27 ar
    43   27   28 ar
    44   27   29 1
    45   28   46 1
    46   29   30 1
    47   30   31 1
    48   30   47 1
    49   30   48 1
    50   32   33 1
    51   32   34 1
    52   32   35 1
@<TRIPOS>MOLECULE
ZINC17126571
   61    62     0     0     0
SMALL
USER_CHARGES
(2R)-2-[(2,5-dimethylphenyl)sulfonylamino]-4-methylsulfanyl-N-[2-(4-sulfamoylphenyl)ethyl]butanamide
@<TRIPOS>ATOM
      1 C1         -6.4725   -0.3845   -5.6567 C.3       1 <0>        -0.1162
      2 C2         -5.0113   -0.7138   -5.4903 C.ar      1 <0>        -0.1144
      3 C3         -4.6274   -1.9925   -5.1312 C.ar      1 <0>        -0.0570
      4 C4         -3.2873   -2.2944   -4.9781 C.ar      1 <0>        -0.1394
      5 C5         -2.3308   -1.3176   -5.1841 C.ar      1 <0>         0.0295
      6 C6         -2.7146   -0.0393   -5.5431 C.ar      1 <0>        -0.6834
      7 C7         -4.0553    0.2640   -5.6911 C.ar      1 <0>        -0.0222
      8 S1         -1.4955    1.2057   -5.8051 S.o2      1 <0>         2.6948
      9 O1         -2.1977    2.4107   -6.0775 O.2       1 <0>        -0.9539
     10 O2         -0.5433    0.6583   -6.7068 O.2       1 <0>        -0.9477
     11 N1         -0.7089    1.4314   -4.3655 N.pl3     1 <0>        -1.0948
     12 C8         -1.4271    1.9921   -3.2183 C.3       1 <0>         0.1455
     13 H1         -2.4798    2.1146   -3.4733 H         1 <0>         0.1184
     14 C9         -0.8282    3.3529   -2.8571 C.3       1 <0>        -0.1086
     15 C10        -1.0337    4.3255   -4.0202 C.3       1 <0>        -0.0865
     16 S2         -0.4056    5.9630   -3.5572 S.3       1 <0>        -0.2666
     17 C11        -0.5808    6.9448   -5.0725 C.3       1 <0>        -0.1191
     18 C12        -1.3006    1.0592   -2.0415 C.2       1 <0>         0.5078
     19 O3         -0.6723    0.0276   -2.1504 O.2       1 <0>        -0.5158
     20 N2         -1.8856    1.3714   -0.8682 N.am      1 <0>        -0.7281
     21 C13        -1.7625    0.4645    0.2758 C.3       1 <0>         0.1244
     22 C14        -2.5127    1.0501    1.4738 C.3       1 <0>        -0.1022
     23 C15        -2.3861    0.1173    2.6506 C.ar      1 <0>        -0.0240
     24 C16        -3.3261   -0.8766    2.8489 C.ar      1 <0>        -0.1348
     25 C17        -3.2076   -1.7351    3.9259 C.ar      1 <0>        -0.0133
     26 C18        -2.1541   -1.5939    4.8097 C.ar      1 <0>        -0.6778
     27 C19        -1.2169   -0.5967    4.6143 C.ar      1 <0>        -0.0181
     28 C20        -1.3330    0.2591    3.5349 C.ar      1 <0>        -0.1337
     29 S3         -2.0054   -2.6854    6.1849 S.o2      1 <0>         2.7009
     30 O4         -2.7042   -3.8731    5.8382 O.2       1 <0>        -0.9616
     31 O5         -0.6331   -2.6891    6.5539 O.2       1 <0>        -0.9591
     32 N3         -2.8326   -2.0003    7.4454 N.pl3     1 <0>        -1.2478
     33 C21        -0.8697   -1.6466   -5.0167 C.3       1 <0>        -0.1737
     34 H2         -6.8786   -0.0427   -4.7047 H         1 <0>         0.0731
     35 H3         -6.5850    0.4019   -6.4031 H         1 <0>         0.0707
     36 H4         -7.0106   -1.2746   -5.9827 H         1 <0>         0.0700
     37 H5         -5.3746   -2.7554   -4.9700 H         1 <0>         0.1310
     38 H6         -2.9874   -3.2932   -4.6973 H         1 <0>         0.1327
     39 H7         -4.3555    1.2640   -5.9673 H         1 <0>         0.1426
     40 H8          0.2274    1.1923   -4.2817 H         1 <0>         0.4282
     41 H9         -1.3215    3.7421   -1.9665 H         1 <0>         0.0917
     42 H10         0.2382    3.2402   -2.6619 H         1 <0>         0.0907
     43 H11        -0.4947    3.9638   -4.8959 H         1 <0>         0.0846
     44 H12        -2.0966    4.3960   -4.2513 H         1 <0>         0.0952
     45 H13        -0.0660    6.4432   -5.8920 H         1 <0>         0.0785
     46 H14        -1.6378    7.0495   -5.3174 H         1 <0>         0.0791
     47 H15        -0.1440    7.9315   -4.9187 H         1 <0>         0.1029
     48 H16        -2.3881    2.1965   -0.7811 H         1 <0>         0.4038
     49 H17        -2.1892   -0.5049    0.0185 H         1 <0>         0.0736
     50 H18        -0.7099    0.3420    0.5308 H         1 <0>         0.0754
     51 H19        -2.0859    2.0196    1.7311 H         1 <0>         0.0893
     52 H20        -3.5653    1.1726    1.2189 H         1 <0>         0.0878
     53 H21        -4.1513   -0.9846    2.1606 H         1 <0>         0.1349
     54 H22        -3.9396   -2.5144    4.0784 H         1 <0>         0.1441
     55 H23        -0.3938   -0.4863    5.3047 H         1 <0>         0.1447
     56 H24        -0.6009    1.0382    3.3822 H         1 <0>         0.1361
     57 H25        -3.2474   -2.5643    8.1168 H         1 <0>         0.4225
     58 H26        -2.9024   -1.0352    7.5122 H         1 <0>         0.4172
     59 H27        -0.5838   -1.5107   -3.9737 H         1 <0>         0.1037
     60 H28        -0.6945   -2.6818   -5.3095 H         1 <0>         0.0833
     61 H29        -0.2739   -0.9853   -5.6459 H         1 <0>         0.0913
@<TRIPOS>BOND
     1    1    2 1
     2    1   34 1
     3    1   35 1
     4    1   36 1
     5    2    7 ar
     6    2    3 ar
     7    3    4 ar
     8    3   37 1
     9    4    5 ar
    10    4   38 1
    11    5    6 ar
    12    5   33 1
    13    6    7 ar
    14    6    8 1
    15    7   39 1
    16    8    9 2
    17    8   10 2
    18    8   11 1
    19   11   12 1
    20   11   40 1
    21   12   13 1
    22   12   14 1
    23   12   18 1
    24   14   15 1
    25   14   41 1
    26   14   42 1
    27   15   16 1
    28   15   43 1
    29   15   44 1
    30   16   17 1
    31   17   45 1
    32   17   46 1
    33   17   47 1
    34   18   19 2
    35   18   20 am
    36   20   21 1
    37   20   48 1
    38   21   22 1
    39   21   49 1
    40   21   50 1
    41   22   23 1
    42   22   51 1
    43   22   52 1
    44   23   28 ar
    45   23   24 ar
    46   24   25 ar
    47   24   53 1
    48   25   26 ar
    49   25   54 1
    50   26   27 ar
    51   26   29 1
    52   27   28 ar
    53   27   55 1
    54   28   56 1
    55   29   30 2
    56   29   31 2
    57   29   32 1
    58   32   57 1
    59   32   58 1
    60   33   59 1
    61   33   60 1
    62   33   61 1
@<TRIPOS>MOLECULE
ZINC34925087
   46    48     0     0     0
SMALL
USER_CHARGES

@<TRIPOS>ATOM
      1 C1         -0.0184    1.5028    0.0103 C.3       1 <0>        -0.1067
      2 C2          0.0021   -0.0041    0.0020 C.ar      1 <0>        -0.1527
      3 C3          0.0057   -0.6888   -1.1975 C.ar      1 <0>        -0.0373
      4 C4          0.0244   -2.0718   -1.2060 C.ar      1 <0>        -0.1482
      5 C5          0.0391   -2.7736   -0.0137 C.ar      1 <0>        -0.0397
      6 C6          0.0355   -2.0948    1.1887 C.ar      1 <0>        -0.1888
      7 C7          0.0230   -0.7056    1.2005 C.ar      1 <0>         0.2365
      8 N1          0.0251   -0.0158    2.4154 N.pl3     1 <0>        -0.7388
      9 C8          0.0472   -0.7573    3.6787 C.3       1 <0>         0.2174
     10 C9          0.0449    0.2136    4.8312 C.2       1 <0>         0.1704
     11 N2          1.0929    0.7300    5.4083 N.2       1 <0>        -0.2536
     12 N3          0.7325    1.5191    6.3564 N.2       1 <0>        -0.2910
     13 C10        -0.5775    1.5508    6.4382 C.2       1 <0>         0.1566
     14 N4         -1.0594    0.7218    5.4626 N.pl3     1 <0>        -0.4052
     15 C11        -2.4035    0.4470    5.1715 C.ar      1 <0>         0.0925
     16 C12        -2.9421    0.8262    3.9496 C.ar      1 <0>        -0.0914
     17 C13        -4.2663    0.5542    3.6658 C.ar      1 <0>        -0.1038
     18 C14        -5.0553   -0.0946    4.5977 C.ar      1 <0>        -0.0956
     19 C15        -4.5216   -0.4735    5.8157 C.ar      1 <0>        -0.1026
     20 C16        -3.1965   -0.2098    6.1026 C.ar      1 <0>        -0.0955
     21 S1         -1.5337    2.4888    7.5830 S.3       1 <0>         0.0990
     22 C17        -0.2940    3.3634    8.5773 C.3       1 <0>        -0.1473
     23 C18        -0.9874    4.2143    9.6099 C.2       1 <0>         0.5364
     24 O1         -2.1987    4.2293    9.6691 O.2       1 <0>        -0.5098
     25 N5         -0.2615    4.9587   10.4675 N.am      1 <0>        -0.5695
     26 N6         -0.8901    5.7300   11.4034 N.3       1 <0>        -0.6004
     27 I1          0.0299   -3.1061   -3.0279 I         1 <0>        -0.0524
     28 H1          1.0042    1.8801    0.0026 H         1 <0>         0.0706
     29 H2         -0.5455    1.8639   -0.8728 H         1 <0>         0.0715
     30 H3         -0.5286    1.8543    0.9071 H         1 <0>         0.0568
     31 H4         -0.0064   -0.1438   -2.1298 H         1 <0>         0.1283
     32 H5          0.0530   -3.8535   -0.0235 H         1 <0>         0.1282
     33 H6          0.0470   -2.6432    2.1191 H         1 <0>         0.1287
     34 H7          0.0120    0.9540    2.4224 H         1 <0>         0.4032
     35 H8         -0.8337   -1.3964    3.7403 H         1 <0>         0.0843
     36 H9          0.9461   -1.3722    3.7234 H         1 <0>         0.1024
     37 H10        -2.3265    1.3336    3.2217 H         1 <0>         0.1273
     38 H11        -4.6858    0.8490    2.7153 H         1 <0>         0.1368
     39 H12        -6.0906   -0.3056    4.3739 H         1 <0>         0.1354
     40 H13        -5.1403   -0.9802    6.5416 H         1 <0>         0.1385
     41 H14        -2.7788   -0.5102    7.0522 H         1 <0>         0.1330
     42 H15         0.3489    2.6383    9.0764 H         1 <0>         0.1280
     43 H16         0.3096    3.9985    7.9290 H         1 <0>         0.1301
     44 H17         0.7072    4.9467   10.4201 H         1 <0>         0.4059
     45 H18        -1.5062    5.1730   11.9764 H         1 <0>         0.3503
     46 H19        -0.2204    6.2278   11.9707 H         1 <0>         0.3626
@<TRIPOS>BOND
     1    1    2 1
     2    1   28 1
     3    1   29 1
     4    1   30 1
     5    2    7 ar
     6    2    3 ar
     7    3    4 ar
     8    3   31 1
     9    4    5 ar
    10    4   27 1
    11    5    6 ar
    12    5   32 1
    13    6    7 ar
    14    6   33 1
    15    7    8 1
    16    8    9 1
    17    8   34 1
    18    9   10 1
    19    9   35 1
    20    9   36 1
    21   10   14 1
    22   10   11 2
    23   11   12 1
    24   12   13 2
    25   13   14 1
    26   13   21 1
    27   14   15 1
    28   15   20 ar
    29   15   16 ar
    30   16   17 ar
    31   16   37 1
    32   17   18 ar
    33   17   38 1
    34   18   19 ar
    35   18   39 1
    36   19   20 ar
    37   19   40 1
    38   20   41 1
    39   21   22 1
    40   22   23 1
    41   22   42 1
    42   22   43 1
    43   23   24 2
    44   23   25 am
    45   25   26 1
    46   25   44 1
    47   26   45 1
    48   26   46 1
@<TRIPOS>MOLECULE
ZINC36580567
   69    70     0     0     0
SMALL
USER_CHARGES

@<TRIPOS>ATOM
      1 C1         -0.7537   -3.4132   -4.3138 C.3       1 <0>        -0.1264
      2 C2         -0.2496   -4.6384   -3.5956 C.ar      1 <0>        -0.0256
      3 C3          0.1871   -5.7327   -4.3187 C.ar      1 <0>        -0.1417
      4 C4          0.6495   -6.8566   -3.6600 C.ar      1 <0>        -0.0224
      5 C5          0.6757   -6.8860   -2.2782 C.ar      1 <0>        -0.6681
      6 C6          0.2399   -5.7914   -1.5551 C.ar      1 <0>        -0.0139
      7 C7         -0.2185   -4.6659   -2.2139 C.ar      1 <0>        -0.1353
      8 S1          1.2640   -8.3190   -1.4385 S.o2      1 <0>         2.4664
      9 O1          0.6153   -8.2906   -0.1746 O.2       1 <0>        -0.9057
     10 O2          1.0372   -9.3893   -2.3453 O.2       1 <0>        -0.9325
     11 C8          3.0448   -8.0408   -1.2332 C.3       1 <0>        -0.3643
     12 N1          3.2609   -6.8939   -0.3477 N.am      1 <0>        -0.7004
     13 C9          3.4660   -7.0891    0.9700 C.2       1 <0>         0.4999
     14 O3          3.4716   -8.2142    1.4227 O.2       1 <0>        -0.4670
     15 C10         3.6884   -5.9093    1.8808 C.3       1 <0>         0.1971
     16 H1          4.7282   -5.5893    1.8137 H         1 <0>         0.1210
     17 C11         2.7863   -4.7761    1.4645 C.ar      1 <0>        -0.1610
     18 C12         1.4572   -4.7667    1.8600 C.ar      1 <0>         0.1672
     19 C13         0.6271   -3.7240    1.4768 C.ar      1 <0>        -0.1786
     20 C14         1.1263   -2.6905    0.6985 C.ar      1 <0>         0.1488
     21 C15         2.4556   -2.6994    0.3038 C.ar      1 <0>        -0.1794
     22 C16         3.2868   -3.7400    0.6906 C.ar      1 <0>         0.1499
     23 O4          4.5907   -3.7463    0.3077 O.3       1 <0>        -0.4864
     24 O5          0.3126   -1.6691    0.3223 O.3       1 <0>        -0.4950
     25 O6          0.9680   -5.7796    2.6226 O.3       1 <0>        -0.4680
     26 N2          3.3839   -6.2939    3.2613 N.am      1 <0>        -0.6006
     27 C17         3.5244   -5.3969    4.2573 C.2       1 <0>         0.5155
     28 O7          3.5122   -4.2095    4.0104 O.2       1 <0>        -0.5127
     29 C18         3.6968   -5.8693    5.6780 C.3       1 <0>        -0.1528
     30 C19         4.2755   -4.7349    6.5260 C.3       1 <0>        -0.0859
     31 C20         3.2658   -3.5877    6.6006 C.3       1 <0>        -0.1605
     32 C21         4.5669   -5.2503    7.9368 C.3       1 <0>        -0.1487
     33 C22         2.9267   -7.6535    3.5590 C.3       1 <0>         0.1711
     34 C23         4.0975   -8.6280    3.4164 C.3       1 <0>        -0.1282
     35 C24         2.3886   -7.7087    4.9902 C.3       1 <0>        -0.1908
     36 C25         1.8163   -8.0437    2.5814 C.3       1 <0>        -0.1386
     37 H2          0.0779   -2.7337   -4.5007 H         1 <0>         0.0800
     38 H3         -1.2030   -3.7071   -5.2624 H         1 <0>         0.0730
     39 H4         -1.5005   -2.9125   -3.6977 H         1 <0>         0.0741
     40 H5          0.1666   -5.7097   -5.3982 H         1 <0>         0.1331
     41 H6          0.9899   -7.7118   -4.2249 H         1 <0>         0.1405
     42 H7          0.2601   -5.8145   -0.4755 H         1 <0>         0.1386
     43 H8         -0.5555   -3.8093   -1.6490 H         1 <0>         0.1342
     44 H9          3.5032   -8.9282   -0.7968 H         1 <0>         0.1585
     45 H10         3.4955   -7.8396   -2.2050 H         1 <0>         0.1462
     46 H11         3.2565   -5.9940   -0.7098 H         1 <0>         0.4061
     47 H12        -0.4082   -3.7171    1.7842 H         1 <0>         0.1392
     48 H13         2.8443   -1.8947   -0.3026 H         1 <0>         0.1394
     49 H14         4.7506   -4.1907   -0.5362 H         1 <0>         0.3879
     50 H15         0.2969   -0.9291    0.9446 H         1 <0>         0.3977
     51 H16         1.1072   -5.6596    3.5720 H         1 <0>         0.3820
     52 H17         2.7292   -6.1675    6.0816 H         1 <0>         0.1177
     53 H18         4.3767   -6.7209    5.6977 H         1 <0>         0.0982
     54 H19         5.1994   -4.3768    6.0719 H         1 <0>         0.0701
     55 H20         2.3419   -3.9458    7.0546 H         1 <0>         0.0454
     56 H21         3.6781   -2.7795    7.2047 H         1 <0>         0.0483
     57 H22         3.0582   -3.2205    5.5955 H         1 <0>         0.0861
     58 H23         5.2862   -6.0676    7.8836 H         1 <0>         0.0539
     59 H24         4.9792   -4.4421    8.5409 H         1 <0>         0.0576
     60 H25         3.6429   -5.6084    8.3908 H         1 <0>         0.0556
     61 H26         4.6460   -8.6771    4.3570 H         1 <0>         0.0306
     62 H27         3.7175   -9.6183    3.1653 H         1 <0>         0.0654
     63 H28         4.7631   -8.2829    2.6252 H         1 <0>         0.0715
     64 H29         1.7021   -6.8777    5.1526 H         1 <0>         0.0593
     65 H30         1.8620   -8.6505    5.1443 H         1 <0>         0.0735
     66 H31         3.2184   -7.6371    5.6933 H         1 <0>         0.0905
     67 H32         2.0078   -7.5839    1.6118 H         1 <0>         0.0912
     68 H33         1.7937   -9.1279    2.4712 H         1 <0>         0.0584
     69 H34         0.8565   -7.6973    2.9646 H         1 <0>         0.0499
@<TRIPOS>BOND
     1    1    2 1
     2    1   37 1
     3    1   38 1
     4    1   39 1
     5    2    7 ar
     6    2    3 ar
     7    3    4 ar
     8    3   40 1
     9    4    5 ar
    10    4   41 1
    11    5    6 ar
    12    5    8 1
    13    6    7 ar
    14    6   42 1
    15    7   43 1
    16    8    9 2
    17    8   10 2
    18    8   11 1
    19   11   12 1
    20   11   44 1
    21   11   45 1
    22   12   13 am
    23   12   46 1
    24   13   14 2
    25   13   15 1
    26   15   16 1
    27   15   17 1
    28   15   26 1
    29   17   22 ar
    30   17   18 ar
    31   18   19 ar
    32   18   25 1
    33   19   20 ar
    34   19   47 1
    35   20   21 ar
    36   20   24 1
    37   21   22 ar
    38   21   48 1
    39   22   23 1
    40   23   49 1
    41   24   50 1
    42   25   51 1
    43   26   27 am
    44   26   33 1
    45   27   28 2
    46   27   29 1
    47   29   30 1
    48   29   52 1
    49   29   53 1
    50   30   31 1
    51   30   32 1
    52   30   54 1
    53   31   55 1
    54   31   56 1
    55   31   57 1
    56   32   58 1
    57   32   59 1
    58   32   60 1
    59   33   34 1
    60   33   35 1
    61   33   36 1
    62   34   61 1
    63   34   62 1
    64   34   63 1
    65   35   64 1
    66   35   65 1
    67   35   66 1
    68   36   67 1
    69   36   68 1
    70   36   69 1
@<TRIPOS>MOLECULE
ZINC43746670
   81    84     0     0     0
SMALL
USER_CHARGES

@<TRIPOS>ATOM
      1 C1         -0.6686    1.2271   -1.9079 C.3       1 <0>        -0.1355
      2 C2         -0.6846   -0.3016   -1.8462 C.3       1 <0>        -0.0249
      3 C3         -0.7715   -0.8288   -3.2674 C.3       1 <0>        -0.1042
      4 C4          0.5903   -0.8092   -3.9607 C.3       1 <0>        -0.1668
      5 C5          1.5372   -1.6473   -3.1242 C.2       1 <0>         0.3885
      6 O1          2.2324   -2.5101   -3.6186 O.2       1 <0>        -0.4593
      7 C6          1.5693   -1.3603   -1.6860 C.2       1 <0>        -0.2463
      8 C7          0.5360   -0.7489   -1.1020 C.2       1 <0>        -0.0168
      9 C8          0.6282   -0.4576    0.3848 C.3       1 <0>        -0.0966
     10 C9         -0.6706   -0.9099    1.0556 C.3       1 <0>        -0.1141
     11 C10        -1.8580   -0.2330    0.3649 C.3       1 <0>        -0.0787
     12 H1         -1.7301    0.8494    0.3801 H         1 <0>         0.0974
     13 C11        -1.9449   -0.7311   -1.0851 C.3       1 <0>        -0.0595
     14 H2         -1.9974   -1.8198   -1.0723 H         1 <0>         0.0802
     15 C12        -3.1752   -0.1956   -1.8112 C.3       1 <0>         0.1098
     16 H3         -3.2396   -0.6632   -2.7937 H         1 <0>         0.0603
     17 C13        -4.4673   -0.4872   -1.0317 C.3       1 <0>        -0.1281
     18 C14        -4.3113    0.1386    0.3411 C.3       1 <0>        -0.0408
     19 C15        -3.1463   -0.6131    1.0721 C.3       1 <0>        -0.0765
     20 H4         -3.3089   -1.6892    1.0107 H         1 <0>         0.0818
     21 C16        -3.2837   -0.1183    2.5164 C.3       1 <0>        -0.1112
     22 C17        -4.8206   -0.1197    2.7398 C.3       1 <0>        -0.1408
     23 C18        -5.4849   -0.0263    1.3011 C.3       1 <0>         0.1030
     24 C19        -6.3920    1.1749    1.2281 C.2       1 <0>         0.3402
     25 O2         -6.2626    2.0781    2.0191 O.2       1 <0>        -0.4093
     26 C20        -7.4605    1.2490    0.1680 C.3       1 <0>         0.0182
     27 O3         -8.1830    2.4742    0.3047 O.3       1 <0>        -0.3346
     28 C21        -9.1768    2.6965   -0.5698 C.2       1 <0>         0.4644
     29 O4         -9.4249    1.8779   -1.4232 O.2       1 <0>        -0.5058
     30 C22        -9.9830    3.9671   -0.4873 C.3       1 <0>        -0.0976
     31 C23       -11.0434    3.9707   -1.5902 C.3       1 <0>        -0.1310
     32 C24       -11.8496    5.2413   -1.5077 C.2       1 <0>         0.5212
     33 O5        -11.6005    6.0630   -0.6511 O.2       1 <0>        -0.5284
     34 N1        -12.8474    5.4645   -2.3857 N.am      1 <0>        -0.7240
     35 C25       -13.6311    6.6996   -2.3055 C.3       1 <0>         0.1728
     36 C26       -14.3156    6.7815   -0.9396 C.3       1 <0>        -0.1591
     37 C27       -12.7047    7.9040   -2.4848 C.3       1 <0>        -0.1590
     38 C28       -14.6916    6.7033   -3.4084 C.3       1 <0>         0.0764
     39 O6        -15.4560    7.9081   -3.3302 O.3       1 <0>        -0.5615
     40 O7         -6.2127   -1.2170    0.9934 O.3       1 <0>        -0.5351
     41 C29        -3.9626    1.6214    0.1982 C.3       1 <0>        -0.1645
     42 O8         -3.0408    1.2175   -1.9759 O.3       1 <0>        -0.5459
     43 H5          0.3446    1.5718   -2.1145 H         1 <0>         0.0401
     44 H6         -1.3362    1.5657   -2.7002 H         1 <0>         0.0904
     45 H7         -1.0028    1.6328   -0.9530 H         1 <0>         0.0657
     46 H8         -1.1442   -1.8528   -3.2447 H         1 <0>         0.0643
     47 H9         -1.4679   -0.2107   -3.8340 H         1 <0>         0.0843
     48 H10         0.5033   -1.2349   -4.9603 H         1 <0>         0.0909
     49 H11         0.9592    0.2146   -4.0240 H         1 <0>         0.1003
     50 H12         2.4237   -1.6563   -1.0954 H         1 <0>         0.1327
     51 H13         1.4697   -1.0026    0.8126 H         1 <0>         0.0773
     52 H14         0.7662    0.6125    0.5397 H         1 <0>         0.0854
     53 H15        -0.7675   -1.9921    0.9686 H         1 <0>         0.0657
     54 H16        -0.6535   -0.6288    2.1086 H         1 <0>         0.0731
     55 H17        -5.3198   -0.0447   -1.5470 H         1 <0>         0.0668
     56 H18        -4.6081   -1.5637   -0.9354 H         1 <0>         0.0847
     57 H19        -2.7930   -0.8039    3.2072 H         1 <0>         0.0737
     58 H20        -2.8799    0.8889    2.6190 H         1 <0>         0.0740
     59 H21        -5.1285   -1.0503    3.2166 H         1 <0>         0.0783
     60 H22        -5.1096    0.7310    3.3570 H         1 <0>         0.0869
     61 H23        -6.9975    1.2083   -0.8180 H         1 <0>         0.1030
     62 H24        -8.1451    0.4086    0.2828 H         1 <0>         0.1040
     63 H25       -10.4706    4.0254    0.4858 H         1 <0>         0.1176
     64 H26        -9.3230    4.8251   -0.6150 H         1 <0>         0.1178
     65 H27       -10.5558    3.9124   -2.5633 H         1 <0>         0.1051
     66 H28       -11.7034    3.1127   -1.4625 H         1 <0>         0.1050
     67 H29       -13.0466    4.8073   -3.0708 H         1 <0>         0.4005
     68 H30       -13.5601    6.7789   -0.1539 H         1 <0>         0.0778
     69 H31       -14.8987    7.7005   -0.8799 H         1 <0>         0.0727
     70 H32       -14.9756    5.9235   -0.8119 H         1 <0>         0.0513
     71 H33       -12.2171    7.8456   -3.4579 H         1 <0>         0.0513
     72 H34       -13.2878    8.8230   -2.4251 H         1 <0>         0.0727
     73 H35       -11.9492    7.9014   -1.6991 H         1 <0>         0.0778
     74 H36       -14.2039    6.6449   -4.3815 H         1 <0>         0.0516
     75 H37       -15.3516    5.8453   -3.2807 H         1 <0>         0.0516
     76 H38       -16.1488    7.9786   -4.0011 H         1 <0>         0.3857
     77 H39        -6.9715   -1.3746    1.5717 H         1 <0>         0.3807
     78 H40        -4.6527    2.0911   -0.5028 H         1 <0>         0.0489
     79 H41        -4.0439    2.1090    1.1697 H         1 <0>         0.0520
     80 H42        -2.9430    1.7207   -0.1740 H         1 <0>         0.1140
     81 H43        -3.7860    1.6331   -2.4308 H         1 <0>         0.3663
@<TRIPOS>BOND
     1    1    2 1
     2    1   43 1
     3    1   44 1
     4    1   45 1
     5    2    8 1
     6    2   13 1
     7    2    3 1
     8    3    4 1
     9    3   46 1
    10    3   47 1
    11    4    5 1
    12    4   48 1
    13    4   49 1
    14    5    6 2
    15    5    7 1
    16    7    8 2
    17    7   50 1
    18    8    9 1
    19    9   10 1
    20    9   51 1
    21    9   52 1
    22   10   11 1
    23   10   53 1
    24   10   54 1
    25   11   12 1
    26   11   19 1
    27   11   13 1
    28   13   14 1
    29   13   15 1
    30   15   16 1
    31   15   17 1
    32   15   42 1
    33   17   18 1
    34   17   55 1
    35   17   56 1
    36   18   23 1
    37   18   19 1
    38   18   41 1
    39   19   20 1
    40   19   21 1
    41   21   22 1
    42   21   57 1
    43   21   58 1
    44   22   23 1
    45   22   59 1
    46   22   60 1
    47   23   24 1
    48   23   40 1
    49   24   25 2
    50   24   26 1
    51   26   27 1
    52   26   61 1
    53   26   62 1
    54   27   28 1
    55   28   29 2
    56   28   30 1
    57   30   31 1
    58   30   63 1
    59   30   64 1
    60   31   32 1
    61   31   65 1
    62   31   66 1
    63   32   33 2
    64   32   34 am
    65   34   35 1
    66   34   67 1
    67   35   36 1
    68   35   37 1
    69   35   38 1
    70   36   68 1
    71   36   69 1
    72   36   70 1
    73   37   71 1
    74   37   72 1
    75   37   73 1
    76   38   39 1
    77   38   74 1
    78   38   75 1
    79   39   76 1
    80   40   77 1
    81   41   78 1
    82   41   79 1
    83   41   80 1
    84   42   81 1
@<TRIPOS>MOLECULE
ZINC59818966
   42    44     0     0     0
SMALL
USER_CHARGES

@<TRIPOS>ATOM
      1 C1         -0.0187    1.5258    0.0104 C.3       1 <0>        -0.1435
      2 C2          0.0021   -0.0041    0.0020 C.3       1 <0>        -0.1256
      3 H1          0.5123   -0.3556   -0.8948 H         1 <0>         0.1201
      4 C3          0.7309   -0.5033    1.2229 C.2       1 <0>         0.5439
      5 O1          0.1049   -0.8912    2.1865 O.2       1 <0>        -0.5146
      6 N1          2.0785   -0.5187    1.2440 N.am      1 <0>        -0.6950
      7 C4          2.7870   -1.0040    2.4308 C.3       1 <0>         0.0772
      8 C5          3.9930   -0.1955    2.9135 C.3       1 <0>        -0.1911
      9 C6          4.2025   -1.5504    2.2343 C.3       1 <0>        -0.1868
     10 S1         -1.6997   -0.6320    0.0149 S.3       1 <0>         0.1106
     11 C7         -2.3645   -0.0933   -1.5254 C.2       1 <0>         0.2207
     12 N2         -3.6092   -0.3225   -1.9571 N.2       1 <0>        -0.5167
     13 C8         -3.7724    0.2190   -3.1461 C.2       1 <0>         0.5590
     14 N3         -2.6115    0.8127   -3.4965 N.pl3     1 <0>        -0.5024
     15 N4         -1.7203    0.6023   -2.4320 N.2       1 <0>        -0.3191
     16 N5         -4.9291    0.1854   -3.9029 N.pl3     1 <0>        -0.5459
     17 N6         -6.0671   -0.4693   -3.4142 N.2       1 <0>        -0.1911
     18 C9         -7.1532   -0.5008   -4.1247 C.2       1 <0>         0.1028
     19 C10        -8.3508   -1.1899   -3.6104 C.ar      1 <0>        -0.0488
     20 C11        -8.3209   -1.8048   -2.3561 C.ar      1 <0>        -0.0224
     21 C12        -9.4435   -2.4483   -1.8789 C.ar      1 <0>        -0.1207
     22 C13       -10.6027   -2.4860   -2.6436 C.ar      1 <0>         0.1799
     23 C14       -10.6369   -1.8760   -3.8913 C.ar      1 <0>        -0.1216
     24 C15        -9.5208   -1.2250   -4.3735 C.ar      1 <0>        -0.0340
     25 Br1       -12.2184   -1.9316   -4.9264 Br        1 <0>        -0.0161
     26 O2        -11.7064   -3.1220   -2.1699 O.3       1 <0>        -0.4725
     27 Br2        -9.4046   -3.2809   -0.1815 Br        1 <0>        -0.0127
     28 H2          1.0039    1.9031    0.0027 H         1 <0>         0.0706
     29 H3         -0.5459    1.8868   -0.8726 H         1 <0>         0.0827
     30 H4         -0.5289    1.8773    0.9072 H         1 <0>         0.0753
     31 H5          2.5791   -0.2084    0.4733 H         1 <0>         0.4042
     32 H6          2.1643   -1.4802    3.1881 H         1 <0>         0.1414
     33 H7          4.2592    0.6975    2.3479 H         1 <0>         0.0979
     34 H8          4.1638   -0.1396    3.9885 H         1 <0>         0.1048
     35 H9          4.5112   -2.3859    2.8626 H         1 <0>         0.1063
     36 H10         4.6066   -1.5488    1.2220 H         1 <0>         0.0984
     37 H11        -4.9526    0.6153   -4.7721 H         1 <0>         0.4029
     38 H12        -7.1794   -0.0223   -5.0925 H         1 <0>         0.1312
     39 H13        -7.4199   -1.7765   -1.7612 H         1 <0>         0.1591
     40 H14        -9.5496   -0.7472   -5.3417 H         1 <0>         0.1503
     41 H15       -12.2980   -2.5541   -1.6574 H         1 <0>         0.4022
     42 H16        -2.4302    1.2932   -4.3194 H         1 <0>         0.4393
@<TRIPOS>BOND
     1    1    2 1
     2    1   28 1
     3    1   29 1
     4    1   30 1
     5    2    3 1
     6    2    4 1
     7    2   10 1
     8    4    5 2
     9    4    6 am
    10    6    7 1
    11    6   31 1
    12    7    9 1
    13    7    8 1
    14    7   32 1
    15    8    9 1
    16    8   33 1
    17    8   34 1
    18    9   35 1
    19    9   36 1
    20   10   11 1
    21   11   15 2
    22   11   12 1
    23   12   13 2
    24   13   14 1
    25   13   16 1
    26   14   15 1
    27   14   42 1
    28   16   17 1
    29   16   37 1
    30   17   18 2
    31   18   19 1
    32   18   38 1
    33   19   24 ar
    34   19   20 ar
    35   20   21 ar
    36   20   39 1
    37   21   22 ar
    38   21   27 1
    39   22   23 ar
    40   22   26 1
    41   23   24 ar
    42   23   25 1
    43   24   40 1
    44   26   41 1
@<TRIPOS>MOLECULE
ZINC38971015
   58    62     0     0     0
SMALL
USER_CHARGES

@<TRIPOS>ATOM
      1 C1         -0.6127    0.5706    1.4846 C.ar      1 <0>        -0.1041
      2 C2         -0.4718   -0.7505    1.8665 C.ar      1 <0>        -0.1214
      3 C3          0.7759   -1.2448    2.1978 C.ar      1 <0>        -0.0948
      4 C4          1.8827   -0.4183    2.1468 C.ar      1 <0>        -0.1058
      5 C5          1.7419    0.9026    1.7641 C.ar      1 <0>        -0.0949
      6 C6          0.4940    1.3973    1.4341 C.ar      1 <0>        -0.1217
      7 C7          3.2428   -0.9570    2.5090 C.3       1 <0>         0.1042
      8 O1          3.8757   -1.4783    1.3386 O.3       1 <0>        -0.3041
      9 C8          5.1193   -2.0067    1.4927 C.ar      1 <0>         0.1145
     10 C9          5.7134   -2.0270    2.7459 C.ar      1 <0>        -0.1652
     11 C10         6.9763   -2.5634    2.9033 C.ar      1 <0>        -0.1446
     12 C11         7.6514   -3.0825    1.8064 C.ar      1 <0>         0.1350
     13 C12         7.0559   -3.0618    0.5522 C.ar      1 <0>        -0.1124
     14 C13         5.7906   -2.5301    0.3976 C.ar      1 <0>        -0.1030
     15 N1          8.9312   -3.6258    1.9649 N.pl3     1 <0>        -0.7178
     16 C14         9.4856   -3.8149    3.3077 C.3       1 <0>         0.3107
     17 H1          8.6704   -3.6908    4.0205 H         1 <0>         0.1878
     18 C15         9.9735   -5.2425    3.4087 C.2       1 <0>         0.4391
     19 N2          9.1574   -6.2345    3.2062 N.2       1 <0>        -0.8256
     20 S1          9.7046   -7.7933    3.3199 S.o2      1 <0>         2.6263
     21 O2         10.6291   -7.9777    2.2567 O.2       1 <0>        -0.9324
     22 O3         10.0571   -8.0018    4.6807 O.2       1 <0>        -0.9331
     23 C16         8.3359   -8.8516    2.9864 C.ar      1 <0>        -0.6553
     24 C17         7.5207   -9.2737    4.0200 C.ar      1 <0>        -0.0177
     25 C18         6.4469  -10.1040    3.7583 C.ar      1 <0>        -0.1348
     26 C19         6.1880  -10.5118    2.4631 C.ar      1 <0>        -0.0492
     27 C20         7.0027  -10.0889    1.4295 C.ar      1 <0>        -0.1347
     28 C21         8.0739   -9.2552    1.6905 C.ar      1 <0>        -0.0169
     29 N3         11.2617   -5.4708    3.7099 N.2       1 <0>        -0.4551
     30 C22        12.1074   -4.4837    3.9189 C.ar      1 <0>         0.2866
     31 C23        13.4615   -4.7618    4.2352 C.ar      1 <0>        -0.0834
     32 C24        14.3335   -3.7529    4.4510 C.ar      1 <0>        -0.0647
     33 C25        13.9631   -2.3998    4.3775 C.ar      1 <0>         0.0519
     34 C26        12.6989   -2.0242    4.0838 C.ar      1 <0>        -0.2037
     35 C27        11.6884   -3.0629    3.8346 C.ar      1 <0>         0.3317
     36 N4         10.4594   -2.7383    3.5472 N.pl3     1 <0>        -0.5128
     37 H2         -1.5868    0.9557    1.2214 H         1 <0>         0.1276
     38 H3         -1.3365   -1.3962    1.9063 H         1 <0>         0.1278
     39 H4          0.8859   -2.2768    2.4968 H         1 <0>         0.1237
     40 H5          2.6066    1.5484    1.7246 H         1 <0>         0.1235
     41 H6          0.3840    2.4294    1.1355 H         1 <0>         0.1278
     42 H7          3.8523   -0.1548    2.9249 H         1 <0>         0.0722
     43 H8          3.1341   -1.7511    3.2476 H         1 <0>         0.0725
     44 H9          5.1884   -1.6229    3.5988 H         1 <0>         0.1373
     45 H10         7.4389   -2.5788    3.8791 H         1 <0>         0.1188
     46 H11         7.5802   -3.4653   -0.3015 H         1 <0>         0.1369
     47 H12         5.3253   -2.5183   -0.5770 H         1 <0>         0.1431
     48 H13         9.4513   -3.8771    1.1856 H         1 <0>         0.4174
     49 H14         7.7230   -8.9551    5.0319 H         1 <0>         0.1415
     50 H15         5.8104  -10.4343    4.5659 H         1 <0>         0.1412
     51 H16         5.3495  -11.1610    2.2588 H         1 <0>         0.1402
     52 H17         6.8006  -10.4078    0.4176 H         1 <0>         0.1412
     53 H18         8.7082   -8.9218    0.8825 H         1 <0>         0.1412
     54 H19        13.7974   -5.7859    4.3043 H         1 <0>         0.1879
     55 H20        15.3580   -3.9967    4.6904 H         1 <0>         0.1775
     56 H21        14.7083   -1.6399    4.5609 H         1 <0>         0.1810
     57 H22        12.4349   -0.9782    4.0329 H         1 <0>         0.1849
     58 H23        10.1928   -1.8073    3.4928 H         1 <0>         0.4565
@<TRIPOS>BOND
     1    1    6 ar
     2    1    2 ar
     3    1   37 1
     4    2    3 ar
     5    2   38 1
     6    3    4 ar
     7    3   39 1
     8    4    5 ar
     9    4    7 1
    10    5    6 ar
    11    5   40 1
    12    6   41 1
    13    7    8 1
    14    7   42 1
    15    7   43 1
    16    8    9 1
    17    9   14 ar
    18    9   10 ar
    19   10   11 ar
    20   10   44 1
    21   11   12 ar
    22   11   45 1
    23   12   13 ar
    24   12   15 1
    25   13   14 ar
    26   13   46 1
    27   14   47 1
    28   15   16 1
    29   15   48 1
    30   16   17 1
    31   16   36 1
    32   16   18 1
    33   18   19 2
    34   18   29 1
    35   19   20 1
    36   20   21 2
    37   20   22 2
    38   20   23 1
    39   23   28 ar
    40   23   24 ar
    41   24   25 ar
    42   24   49 1
    43   25   26 ar
    44   25   50 1
    45   26   27 ar
    46   26   51 1
    47   27   28 ar
    48   27   52 1
    49   28   53 1
    50   29   30 2
    51   30   35 ar
    52   30   31 ar
    53   31   32 ar
    54   31   54 1
    55   32   33 ar
    56   32   55 1
    57   33   34 ar
    58   33   56 1
    59   34   35 ar
    60   34   57 1
    61   35   36 2
    62   36   58 1
@<TRIPOS>MOLECULE
ZINC38984408
   57    61     0     0     0
SMALL
USER_CHARGES

@<TRIPOS>ATOM
      1 C1         -0.0184    1.5028    0.0103 C.3       1 <0>        -0.1394
      2 C2          0.0021   -0.0041    0.0020 C.ar      1 <0>         0.0026
      3 C3          0.0057   -0.6888   -1.1991 C.ar      1 <0>        -0.1289
      4 C4          0.0245   -2.0707   -1.2067 C.ar      1 <0>        -0.0141
      5 C5          0.0400   -2.7685   -0.0132 C.ar      1 <0>        -0.6433
      6 C6          0.0373   -2.0840    1.1875 C.ar      1 <0>        -0.0135
      7 C7          0.0229   -0.7015    1.1951 C.ar      1 <0>        -0.0958
      8 C8          0.0252    0.0449    2.5043 C.3       1 <0>        -0.1266
      9 S1          0.0628   -4.5303   -0.0229 S.o2      1 <0>         2.5696
     10 O1         -0.4759   -4.9503    1.2232 O.2       1 <0>        -0.9261
     11 O2         -0.4897   -4.9367   -1.2674 O.2       1 <0>        -0.9232
     12 N1          1.6509   -4.9994   -0.0342 N.2       1 <0>        -0.8024
     13 C9          1.9553   -6.2636   -0.0428 C.2       1 <0>         0.4592
     14 C10         3.4017   -6.7044   -0.0469 C.3       1 <0>         0.2624
     15 H1          3.8816   -6.2789    0.8345 H         1 <0>         0.2219
     16 N2          3.6796   -8.1492   -0.0560 N.pl3     1 <0>        -0.4531
     17 C11         2.6719   -8.9766   -0.0602 C.ar      1 <0>         0.3435
     18 C12         2.8959  -10.4298   -0.0693 C.ar      1 <0>        -0.1241
     19 C13         1.8265  -11.2555   -0.0730 C.ar      1 <0>        -0.0067
     20 C14         0.5115  -10.7613   -0.0683 C.ar      1 <0>         0.1299
     21 C15         0.2274   -9.4407   -0.0599 C.ar      1 <0>        -0.2017
     22 C16         1.2728   -8.4826   -0.0554 C.ar      1 <0>         0.3778
     23 N3          0.9901   -7.1968   -0.0425 N.pl3     1 <0>        -0.5286
     24 N4          4.0460   -6.1172   -1.2293 N.3       1 <0>        -0.6220
     25 C17         5.3547   -5.5450   -0.8860 C.3       1 <0>         0.0907
     26 C18         5.9838   -4.9534   -2.1211 C.ar      1 <0>        -0.1183
     27 C19         6.7894   -5.7361   -2.9272 C.ar      1 <0>        -0.0943
     28 C20         7.3683   -5.1982   -4.0614 C.ar      1 <0>        -0.1020
     29 C21         7.1425   -3.8720   -4.3927 C.ar      1 <0>         0.0646
     30 C22         6.3311   -3.0836   -3.5807 C.ar      1 <0>         0.0385
     31 C23         5.7495   -3.6310   -2.4486 C.ar      1 <0>        -0.0704
     32 O3          6.2661   -1.8293   -4.1152 O.3       1 <0>        -0.3027
     33 C24         7.3707   -1.7456   -5.0350 C.3       1 <0>         0.2114
     34 O4          7.5859   -3.1117   -5.4361 O.3       1 <0>        -0.2998
     35 H2          1.0042    1.8801    0.0026 H         1 <0>         0.0911
     36 H3         -0.5455    1.8639   -0.8728 H         1 <0>         0.0833
     37 H4         -0.5286    1.8543    0.9071 H         1 <0>         0.0848
     38 H5         -0.0064   -0.1437   -2.1314 H         1 <0>         0.1468
     39 H6          0.0266   -2.6056   -2.1449 H         1 <0>         0.1438
     40 H7          0.0491   -2.6290    2.1199 H         1 <0>         0.1435
     41 H8         -1.0017    0.2110    2.8297 H         1 <0>         0.0841
     42 H9          0.5542   -0.5412    3.2558 H         1 <0>         0.0744
     43 H10         0.5249    1.0049    2.3743 H         1 <0>         0.0817
     44 H11         3.8987  -10.8305   -0.0733 H         1 <0>         0.2181
     45 H12         1.9868  -12.3235   -0.0800 H         1 <0>         0.2118
     46 H13        -0.3065  -11.4665   -0.0720 H         1 <0>         0.2122
     47 H14        -0.8016   -9.1127   -0.0567 H         1 <0>         0.2137
     48 H15         4.1316   -6.7974   -1.9696 H         1 <0>         0.3786
     49 H16         5.2248   -4.7653   -0.1355 H         1 <0>         0.1213
     50 H17         6.0006   -6.3279   -0.4886 H         1 <0>         0.0787
     51 H18         6.9671   -6.7699   -2.6701 H         1 <0>         0.1358
     52 H19         7.9972   -5.8119   -4.6894 H         1 <0>         0.1459
     53 H20         5.1162   -3.0232   -1.8194 H         1 <0>         0.1409
     54 H21         7.1069   -1.1308   -5.8955 H         1 <0>         0.1438
     55 H22         8.2552   -1.3490   -4.5364 H         1 <0>         0.0968
     56 H23         4.5919   -8.4787   -0.0592 H         1 <0>         0.4802
     57 H24         0.0614   -6.9167   -0.0358 H         1 <0>         0.4539
@<TRIPOS>BOND
     1    1    2 1
     2    1   35 1
     3    1   36 1
     4    1   37 1
     5    2    7 ar
     6    2    3 ar
     7    3    4 ar
     8    3   38 1
     9    4    5 ar
    10    4   39 1
    11    5    6 ar
    12    5    9 1
    13    6    7 ar
    14    6   40 1
    15    7    8 1
    16    8   41 1
    17    8   42 1
    18    8   43 1
    19    9   10 2
    20    9   11 2
    21    9   12 1
    22   12   13 2
    23   13   23 1
    24   13   14 1
    25   14   15 1
    26   14   16 1
    27   14   24 1
    28   16   17 2
    29   16   56 1
    30   17   22 ar
    31   17   18 ar
    32   18   19 ar
    33   18   44 1
    34   19   20 ar
    35   19   45 1
    36   20   21 ar
    37   20   46 1
    38   21   22 ar
    39   21   47 1
    40   22   23 2
    41   23   57 1
    42   24   25 1
    43   24   48 1
    44   25   26 1
    45   25   49 1
    46   25   50 1
    47   26   31 ar
    48   26   27 ar
    49   27   28 ar
    50   27   51 1
    51   28   29 ar
    52   28   52 1
    53   29   34 1
    54   29   30 ar
    55   30   31 ar
    56   30   32 1
    57   31   53 1
    58   32   33 1
    59   33   34 1
    60   33   54 1
    61   33   55 1
@<TRIPOS>MOLECULE
ZINC09232448
   77    81     0     0     0
SMALL
USER_CHARGES

@<TRIPOS>ATOM
      1 C1         -0.0230    1.7136   -0.8783 C.3       1 <0>        -0.1692
      2 C2         -0.1143    0.2344   -0.4983 C.3       1 <0>        -0.1402
      3 C3          0.8156   -0.5817   -1.3984 C.3       1 <0>        -0.1022
      4 H1          0.5743   -0.3857   -2.4432 H         1 <0>         0.1315
      5 C4          2.2684   -0.1833   -1.1265 C.3       1 <0>        -0.0092
      6 N1          2.5928   -0.4551    0.2788 N.4       1 <0>        -0.3800
      7 C5          3.9565    0.0022    0.5767 C.3       1 <0>        -0.0038
      8 C6          4.1516   -0.0004    2.0936 C.3       1 <0>        -0.1072
      9 C7          3.7307   -1.3312    2.6634 C.ar      1 <0>        -0.0706
     10 C8          4.1409   -1.6628    3.9459 C.ar      1 <0>        -0.1649
     11 C9          3.7738   -2.8731    4.5064 C.ar      1 <0>         0.1434
     12 C10         2.9874   -3.7603    3.7769 C.ar      1 <0>         0.1184
     13 C11         2.5814   -3.4250    2.4978 C.ar      1 <0>        -0.1615
     14 C12         2.9542   -2.2113    1.9385 C.ar      1 <0>        -0.1403
     15 C13         2.4990   -1.8928    0.5403 C.3       1 <0>         0.0957
     16 H2          3.1333   -2.4244   -0.1690 H         1 <0>         0.1437
     17 C14         1.0545   -2.3567    0.3423 C.3       1 <0>        -0.1536
     18 C15         0.6327   -2.0729   -1.1032 C.3       1 <0>        -0.1180
     19 H3          1.2512   -2.6573   -1.7843 H         1 <0>         0.1064
     20 C16        -0.8370   -2.4545   -1.2913 C.3       1 <0>        -0.1439
     21 C17        -0.9394   -3.9470   -1.6118 C.3       1 <0>         0.0918
     22 H4         -0.3672   -4.1607   -2.5145 H         1 <0>         0.1501
     23 C18        -2.3836   -4.3075   -1.8422 C.ar      1 <0>        -0.1390
     24 C19        -3.1765   -3.4297   -2.5676 C.ar      1 <0>        -0.1565
     25 C20        -4.5073   -3.7225   -2.8055 C.ar      1 <0>         0.1203
     26 C21        -5.0528   -4.9050   -2.3139 C.ar      1 <0>         0.1411
     27 C22        -4.2588   -5.7766   -1.5899 C.ar      1 <0>        -0.1680
     28 C23        -2.9254   -5.4776   -1.3537 C.ar      1 <0>        -0.0793
     29 C24        -2.0989   -6.4522   -0.5538 C.3       1 <0>        -0.1048
     30 C25        -0.6122   -6.1513   -0.7473 C.3       1 <0>        -0.0066
     31 N2         -0.3874   -4.7199   -0.4955 N.4       1 <0>        -0.5124
     32 O1         -6.3596   -5.2023   -2.5443 O.3       1 <0>        -0.2928
     33 C26        -6.8491   -6.4334   -2.0087 C.3       1 <0>         0.0193
     34 O2         -5.2795   -2.8586   -3.5175 O.3       1 <0>        -0.2927
     35 C27        -4.6513   -1.6656   -3.9906 C.3       1 <0>         0.0222
     36 O3          2.6194   -4.9516    4.3198 O.3       1 <0>        -0.2895
     37 C28         1.8121   -5.8108    3.5122 C.3       1 <0>         0.0221
     38 O4          4.1797   -3.1948    5.7639 O.3       1 <0>        -0.2926
     39 C29         4.9849   -2.2350    6.4512 C.3       1 <0>         0.0184
     40 H5          1.0028    2.0592   -0.7495 H         1 <0>         0.0549
     41 H6         -0.3212    1.8405   -1.9190 H         1 <0>         0.0726
     42 H7         -0.6854    2.2951   -0.2370 H         1 <0>         0.0746
     43 H8          0.1839    0.1075    0.5424 H         1 <0>         0.0581
     44 H9         -1.1400   -0.1111   -0.6270 H         1 <0>         0.0937
     45 H10         2.9307   -0.7613   -1.7710 H         1 <0>         0.1367
     46 H11         2.3983    0.8795   -1.3307 H         1 <0>         0.1443
     47 H12         4.6777   -0.6714    0.1139 H         1 <0>         0.1362
     48 H13         4.0960    1.0123    0.1916 H         1 <0>         0.1434
     49 H14         5.2023    0.1759    2.3238 H         1 <0>         0.1290
     50 H15         3.5475    0.7908    2.5377 H         1 <0>         0.1070
     51 H16         4.7506   -0.9725    4.5100 H         1 <0>         0.1520
     52 H17         1.9709   -4.1123    1.9310 H         1 <0>         0.1309
     53 H18         0.9848   -3.4265    0.5392 H         1 <0>         0.0807
     54 H19         0.4006   -1.8153    1.0260 H         1 <0>         0.1146
     55 H20        -1.3879   -2.2409   -0.3753 H         1 <0>         0.1046
     56 H21        -1.2602   -1.8766   -2.1129 H         1 <0>         0.1270
     57 H22        -2.7520   -2.5127   -2.9488 H         1 <0>         0.1445
     58 H23        -4.6794   -6.6947   -1.2072 H         1 <0>         0.1496
     59 H24        -2.3526   -6.3611    0.5024 H         1 <0>         0.1054
     60 H25        -2.3098   -7.4675   -0.8898 H         1 <0>         0.1275
     61 H26        -0.0246   -6.7432   -0.0455 H         1 <0>         0.1426
     62 H27        -0.3197   -6.3936   -1.7690 H         1 <0>         0.1400
     63 H28         0.6029   -4.5425   -0.4191 H         1 <0>         0.4216
     64 H29        -6.2814   -7.2636   -2.4288 H         1 <0>         0.0628
     65 H30        -6.7368   -6.4281   -0.9246 H         1 <0>         0.0619
     66 H31        -7.9026   -6.5474   -2.2643 H         1 <0>         0.1150
     67 H32        -4.2754   -1.0922   -3.1432 H         1 <0>         0.0561
     68 H33        -3.8224   -1.9277   -4.6483 H         1 <0>         0.0588
     69 H34        -5.3767   -1.0668   -4.5413 H         1 <0>         0.1132
     70 H35         1.5905   -6.7248    4.0632 H         1 <0>         0.1143
     71 H36         0.8808   -5.3034    3.2605 H         1 <0>         0.0500
     72 H37         2.3492   -6.0594    2.5969 H         1 <0>         0.0555
     73 H38         5.8990   -2.0556    5.8853 H         1 <0>         0.0641
     74 H39         4.4310   -1.3016    6.5520 H         1 <0>         0.0634
     75 H40         5.2388   -2.6154    7.4406 H         1 <0>         0.1162
     76 H41         1.9426    0.0365    0.8735 H         1 <0>         0.4237
     77 H42        -0.8472   -4.4510    0.3614 H         1 <0>         0.4279
@<TRIPOS>BOND
     1    1    2 1
     2    1   40 1
     3    1   41 1
     4    1   42 1
     5    2    3 1
     6    2   43 1
     7    2   44 1
     8    3    4 1
     9    3   18 1
    10    3    5 1
    11    5    6 1
    12    5   45 1
    13    5   46 1
    14    6   15 1
    15    6    7 1
    16    6   76 1
    17    7    8 1
    18    7   47 1
    19    7   48 1
    20    8    9 1
    21    8   49 1
    22    8   50 1
    23    9   14 ar
    24    9   10 ar
    25   10   11 ar
    26   10   51 1
    27   11   12 ar
    28   11   38 1
    29   12   13 ar
    30   12   36 1
    31   13   14 ar
    32   13   52 1
    33   14   15 1
    34   15   16 1
    35   15   17 1
    36   17   18 1
    37   17   53 1
    38   17   54 1
    39   18   19 1
    40   18   20 1
    41   20   21 1
    42   20   55 1
    43   20   56 1
    44   21   22 1
    45   21   31 1
    46   21   23 1
    47   23   28 ar
    48   23   24 ar
    49   24   25 ar
    50   24   57 1
    51   25   26 ar
    52   25   34 1
    53   26   27 ar
    54   26   32 1
    55   27   28 ar
    56   27   58 1
    57   28   29 1
    58   29   30 1
    59   29   59 1
    60   29   60 1
    61   30   31 1
    62   30   61 1
    63   30   62 1
    64   31   63 1
    65   31   77 1
    66   32   33 1
    67   33   64 1
    68   33   65 1
    69   33   66 1
    70   34   35 1
    71   35   67 1
    72   35   68 1
    73   35   69 1
    74   36   37 1
    75   37   70 1
    76   37   71 1
    77   37   72 1
    78   38   39 1
    79   39   73 1
    80   39   74 1
    81   39   75 1
@<TRIPOS>MOLECULE
ZINC63490987
   59    63     0     0     0
SMALL
USER_CHARGES

@<TRIPOS>ATOM
      1 C1         -0.5196    1.4865    0.1813 C.3       1 <0>        -0.1469
      2 C2         -0.6345   -0.0383    0.2340 C.3       1 <0>        -0.0324
      3 C3          0.1508   -0.5608    1.4093 C.2       1 <0>         0.1696
      4 N1          0.8338    0.1120    2.2831 N.2       1 <0>        -0.2388
      5 N2          1.5277   -0.4820    3.3165 N.am      1 <0>        -0.4829
      6 C4          1.7416   -1.9507    3.1151 C.3       1 <0>         0.3799
      7 H1          2.7246   -2.2034    2.7177 H         1 <0>         0.1483
      8 S1          0.3584   -2.2582    1.9387 S.3       1 <0>        -0.1999
      9 N3          1.4558   -2.5832    4.4099 N.pl3     1 <0>        -0.7208
     10 C5          2.0387   -2.0262    5.5249 C.2       1 <0>         0.2051
     11 C6          2.3149   -0.7057    5.5509 C.2       1 <0>        -0.2662
     12 C7          1.9828    0.1138    4.4495 C.2       1 <0>         0.5933
     13 O1          2.1343    1.3215    4.5065 O.2       1 <0>        -0.4808
     14 C8          2.3677   -2.8896    6.7154 C.3       1 <0>         0.0907
     15 O2          2.9609   -2.0859    7.7373 O.3       1 <0>        -0.2732
     16 C9          3.3195   -2.7153    8.8866 C.ar      1 <0>         0.1764
     17 C10         3.1087   -4.0807    9.0228 C.ar      1 <0>        -0.1866
     18 C11         3.4703   -4.7246   10.1860 C.ar      1 <0>        -0.0598
     19 C12         4.0521   -4.0018   11.2333 C.ar      1 <0>        -0.1555
     20 C13         4.2646   -2.6257   11.0950 C.ar      1 <0>        -0.1196
     21 C14         3.9035   -1.9892    9.9236 C.ar      1 <0>         0.1089
     22 O3          4.1129   -0.6527    9.7837 O.3       1 <0>        -0.2906
     23 C15         4.7154    0.0284   10.8860 C.3       1 <0>         0.0198
     24 C16         4.4386   -4.6863   12.4761 C.2       1 <0>         0.1639
     25 C17         4.8361   -5.9756   12.4408 C.2       1 <0>        -0.2195
     26 C18         5.0277   -6.6316   11.1824 C.1       1 <0>         0.2025
     27 N4          5.1798   -7.1520   10.1841 N.1       1 <0>        -0.3403
     28 C19         5.0783   -6.7248   13.7257 C.3       1 <0>         0.3269
     29 N5          6.4498   -7.2484   13.7530 N.pl3     1 <0>        -0.4649
     30 C20         6.3713   -8.5450   13.8369 C.ar      1 <0>         0.3235
     31 C21         7.3866   -9.6053   13.9004 C.ar      1 <0>        -0.1407
     32 C22         6.9986  -10.8935   13.9852 C.ar      1 <0>         0.0345
     33 C23         5.6461  -11.2774   14.0158 C.ar      1 <0>         0.0358
     34 C24         4.6362  -10.3861   13.9626 C.ar      1 <0>        -0.1416
     35 C25         4.9397   -8.9513   13.8698 C.ar      1 <0>         0.3241
     36 N6          4.1886   -7.8902   13.8050 N.pl3     1 <0>        -0.4664
     37 H2          0.5277    1.7684    0.0727 H         1 <0>         0.0652
     38 H3         -1.0876    1.8645   -0.6688 H         1 <0>         0.0748
     39 H4         -0.9171    1.9129    1.1023 H         1 <0>         0.0650
     40 H5         -1.6818   -0.3202    0.3426 H         1 <0>         0.1060
     41 H6         -0.2370   -0.4647   -0.6870 H         1 <0>         0.1074
     42 H7          2.7791   -0.2725    6.4246 H         1 <0>         0.1726
     43 H8          0.8799   -3.3610    4.4760 H         1 <0>         0.4207
     44 H9          1.4542   -3.3461    7.0967 H         1 <0>         0.0971
     45 H10         3.0665   -3.6706    6.4159 H         1 <0>         0.1008
     46 H11         2.6597   -4.6396    8.2151 H         1 <0>         0.1517
     47 H12         3.3045   -5.7868   10.2894 H         1 <0>         0.1293
     48 H13         4.7130   -2.0634   11.9007 H         1 <0>         0.1558
     49 H14         4.8254    1.0854   10.6438 H         1 <0>         0.1164
     50 H15         4.0841   -0.0784   11.7681 H         1 <0>         0.0620
     51 H16         5.6963   -0.4023   11.0870 H         1 <0>         0.0598
     52 H17         4.4044   -4.1574   13.4171 H         1 <0>         0.1765
     53 H18         4.9107   -6.0676   14.5790 H         1 <0>         0.2499
     54 H19         8.4368   -9.3542   13.8790 H         1 <0>         0.2064
     55 H20         7.7567  -11.6614   14.0311 H         1 <0>         0.2041
     56 H21         5.4070  -12.3284   14.0842 H         1 <0>         0.2041
     57 H22         3.6108  -10.7242   13.9881 H         1 <0>         0.2064
     58 H23         7.2650   -6.7241   13.7152 H         1 <0>         0.4963
     59 H24         3.2187   -7.8726   13.8086 H         1 <0>         0.4959
@<TRIPOS>BOND
     1    1    2 1
     2    1   37 1
     3    1   38 1
     4    1   39 1
     5    2    3 1
     6    2   40 1
     7    2   41 1
     8    3    8 1
     9    3    4 2
    10    4    5 1
    11    5    6 1
    12    5   12 am
    13    6    7 1
    14    6    8 1
    15    6    9 1
    16    9   10 1
    17    9   43 1
    18   10   11 2
    19   10   14 1
    20   11   12 1
    21   11   42 1
    22   12   13 2
    23   14   15 1
    24   14   44 1
    25   14   45 1
    26   15   16 1
    27   16   21 ar
    28   16   17 ar
    29   17   18 ar
    30   17   46 1
    31   18   19 ar
    32   18   47 1
    33   19   20 ar
    34   19   24 1
    35   20   21 ar
    36   20   48 1
    37   21   22 1
    38   22   23 1
    39   23   49 1
    40   23   50 1
    41   23   51 1
    42   24   25 2
    43   24   52 1
    44   25   26 1
    45   25   28 1
    46   26   27 3
    47   28   36 1
    48   28   29 1
    49   28   53 1
    50   29   30 2
    51   29   58 1
    52   30   35 ar
    53   30   31 ar
    54   31   32 ar
    55   31   54 1
    56   32   33 ar
    57   32   55 1
    58   33   34 ar
    59   33   56 1
    60   34   35 ar
    61   34   57 1
    62   35   36 2
    63   36   59 1
@<TRIPOS>MOLECULE
ZINC64744024
   75    78     0     0     0
SMALL
USER_CHARGES

@<TRIPOS>ATOM
      1 C1         -0.4178    1.4947   -0.1347 C.3       1 <0>        -0.1835
      2 C2         -0.0389    0.0171   -0.2523 C.3       1 <0>         0.0236
      3 H1          0.2889   -0.1940   -1.2702 H         1 <0>         0.1433
      4 C3         -1.2548   -0.8494    0.0819 C.3       1 <0>        -0.1622
      5 C4         -0.8801   -2.3269   -0.0504 C.3       1 <0>         0.1041
      6 N1         -2.0742   -3.1529    0.1449 N.am      1 <0>        -0.7314
      7 C5         -1.9839   -4.4957    0.0727 C.2       1 <0>         0.5219
      8 O1         -0.9141   -5.0202   -0.1540 O.2       1 <0>        -0.5255
      9 C6         -3.2122   -5.3453    0.2736 C.3       1 <0>        -0.1055
     10 H2         -3.6223   -5.1620    1.2668 H         1 <0>         0.1016
     11 C7         -4.2583   -4.9878   -0.7841 C.3       1 <0>        -0.1517
     12 C8         -2.8375   -6.8228    0.1413 C.3       1 <0>        -0.0698
     13 C9         -1.7899   -7.1798    1.1983 C.3       1 <0>        -0.1402
     14 C10        -1.3918   -8.6506    1.0405 C.3       1 <0>         0.1121
     15 N2         -2.6055   -9.4771    1.0907 N.am      1 <0>        -0.5902
     16 C11        -3.7129   -9.1621    0.1780 C.3       1 <0>         0.0850
     17 C12        -4.0850   -7.6855    0.3454 C.3       1 <0>        -0.1393
     18 C13        -2.7011  -10.5049    1.9573 C.2       1 <0>         0.5263
     19 O2         -1.7798  -10.7551    2.7053 O.2       1 <0>        -0.4988
     20 C14        -3.9527  -11.3434    1.9967 C.3       1 <0>         0.0645
     21 H3         -4.1289  -11.8006    1.0230 H         1 <0>         0.2028
     22 C15        -5.1378  -10.4925    2.3952 C.2       1 <0>         0.0284
     23 C16        -5.6137  -11.0269    3.5429 C.ar      1 <0>        -0.1364
     24 C17        -6.7347  -10.6643    4.4183 C.ar      1 <0>        -0.0151
     25 C18        -6.9700  -11.4069    5.5249 C.ar      1 <0>        -0.0674
     26 C19        -6.1710  -12.5118    5.8549 C.ar      1 <0>         0.0590
     27 C20        -5.1241  -12.9056    5.0996 C.ar      1 <0>        -0.1848
     28 C21        -4.7860  -12.1970    3.9136 C.ar      1 <0>         0.3401
     29 N3         -3.8346  -12.3800    3.0282 N.pl3     1 <0>        -0.5481
     30 Cl1        -8.2945  -10.9810    6.5632 Cl        1 <0>        -0.0056
     31 N4          1.0505   -0.2853    0.6856 N.4       1 <0>        -0.3656
     32 C22         0.6168    0.0795    2.0483 C.3       1 <0>        -0.0133
     33 C23         1.4093   -0.7428    3.0334 C.3       1 <0>        -0.1475
     34 C24         2.6319    0.0323    3.5594 C.3       1 <0>        -0.1308
     35 C25         3.3294    0.8296    2.4388 C.3       1 <0>        -0.1398
     36 C26         3.4199    0.0513    1.1511 C.3       1 <0>        -0.1349
     37 C27         2.1991    0.3909    0.2706 C.3       1 <0>        -0.0380
     38 H4          0.4182    2.1115   -0.4644 H         1 <0>         0.0867
     39 H5         -1.2876    1.6977   -0.7594 H         1 <0>         0.1072
     40 H6         -0.6539    1.7277    0.9036 H         1 <0>         0.0834
     41 H7         -1.5760   -0.6461    1.1035 H         1 <0>         0.0988
     42 H8         -2.0668   -0.6173   -0.6072 H         1 <0>         0.1221
     43 H9         -0.4700   -2.5102   -1.0435 H         1 <0>         0.0829
     44 H10        -0.1349   -2.5816    0.7031 H         1 <0>         0.0616
     45 H11        -2.9298   -2.7334    0.3263 H         1 <0>         0.4078
     46 H12        -3.8482   -5.1711   -1.7772 H         1 <0>         0.0667
     47 H13        -5.1467   -5.6024   -0.6388 H         1 <0>         0.0769
     48 H14        -4.5252   -3.9352   -0.6898 H         1 <0>         0.0630
     49 H15        -2.4279   -7.0060   -0.8520 H         1 <0>         0.0887
     50 H16        -0.9108   -6.5488    1.0669 H         1 <0>         0.1089
     51 H17        -2.2073   -7.0205    2.1925 H         1 <0>         0.0630
     52 H18        -0.8920   -8.7932    0.0824 H         1 <0>         0.0854
     53 H19        -0.7212   -8.9366    1.8509 H         1 <0>         0.0997
     54 H20        -3.4024   -9.3463   -0.8505 H         1 <0>         0.0959
     55 H21        -4.5739   -9.7855    0.4192 H         1 <0>         0.0842
     56 H22        -4.4808   -7.5214    1.3477 H         1 <0>         0.0730
     57 H23        -4.8395   -7.4144   -0.3931 H         1 <0>         0.0958
     58 H24        -5.5253   -9.6321    1.8700 H         1 <0>         0.2172
     59 H25        -7.3621   -9.8173    4.1830 H         1 <0>         0.1763
     60 H26        -6.4028  -13.0697    6.7500 H         1 <0>         0.1758
     61 H27        -4.5398  -13.7637    5.3975 H         1 <0>         0.1762
     62 H28         0.8022    1.1395    2.2214 H         1 <0>         0.1365
     63 H29        -0.4462   -0.1319    2.1644 H         1 <0>         0.1338
     64 H30         0.7675   -1.0085    3.8734 H         1 <0>         0.1062
     65 H31         1.7495   -1.6552    2.5437 H         1 <0>         0.0792
     66 H32         2.3068    0.7231    4.3373 H         1 <0>         0.0813
     67 H33         3.3428   -0.6741    3.9880 H         1 <0>         0.0821
     68 H34         2.7701    1.7475    2.2580 H         1 <0>         0.0698
     69 H35         4.3362    1.0903    2.7652 H         1 <0>         0.0882
     70 H36         4.3354    0.3220    0.6251 H         1 <0>         0.1111
     71 H37         3.4258   -1.0164    1.3700 H         1 <0>         0.0858
     72 H38         2.4189    0.1162   -0.7611 H         1 <0>         0.1307
     73 H39         2.0153    1.4642    0.3184 H         1 <0>         0.1312
     74 H40        -3.1655  -13.0819    3.0514 H         1 <0>         0.4641
     75 H41         1.2323   -1.2775    0.6603 H         1 <0>         0.4156
@<TRIPOS>BOND
     1    1    2 1
     2    1   38 1
     3    1   39 1
     4    1   40 1
     5    2    3 1
     6    2    4 1
     7    2   31 1
     8    4    5 1
     9    4   41 1
    10    4   42 1
    11    5    6 1
    12    5   43 1
    13    5   44 1
    14    6    7 am
    15    6   45 1
    16    7    8 2
    17    7    9 1
    18    9   10 1
    19    9   11 1
    20    9   12 1
    21   11   46 1
    22   11   47 1
    23   11   48 1
    24   12   17 1
    25   12   13 1
    26   12   49 1
    27   13   14 1
    28   13   50 1
    29   13   51 1
    30   14   15 1
    31   14   52 1
    32   14   53 1
    33   15   16 1
    34   15   18 am
    35   16   17 1
    36   16   54 1
    37   16   55 1
    38   17   56 1
    39   17   57 1
    40   18   19 2
    41   18   20 1
    42   20   21 1
    43   20   29 1
    44   20   22 1
    45   22   23 2
    46   22   58 1
    47   23   28 ar
    48   23   24 ar
    49   24   25 ar
    50   24   59 1
    51   25   26 ar
    52   25   30 1
    53   26   27 ar
    54   26   60 1
    55   27   28 ar
    56   27   61 1
    57   28   29 2
    58   29   74 1
    59   31   37 1
    60   31   32 1
    61   31   75 1
    62   32   33 1
    63   32   62 1
    64   32   63 1
    65   33   34 1
    66   33   64 1
    67   33   65 1
    68   34   35 1
    69   34   66 1
    70   34   67 1
    71   35   36 1
    72   35   68 1
    73   35   69 1
    74   36   37 1
    75   36   70 1
    76   36   71 1
    77   37   72 1
    78   37   73 1
@<TRIPOS>MOLECULE
ZINC13407254
   46    48     0     0     0
SMALL
USER_CHARGES
(2S,3R,4S,5S,6R)-2-[[(1S,4aR,5R,7aS)-5-hydroxy-7-(hydroxymethyl)-1,4a,5,7a-tetrahydrocyclopenta[c]pyran-1-yl]oxy]-6-(hydroxymethyl)tetrahydropyran-3,4,5-triol
@<TRIPOS>ATOM
      1 C1         -0.7451    2.0687   -1.1768 C.2       1 <0>        -0.2525
      2 C2         -0.1565    2.6452   -2.1899 C.2       1 <0>         0.0795
      3 O1          1.1781    2.8185   -2.2391 O.3       1 <0>        -0.3507
      4 C3          2.0176    2.0363   -1.4125 C.3       1 <0>         0.2833
      5 H1          2.1306    1.0494   -1.8611 H         1 <0>         0.0888
      6 C4          1.4779    1.8732   -0.0020 C.3       1 <0>        -0.0759
      7 H2          1.6702    2.7679    0.5901 H         1 <0>         0.0991
      8 C5         -0.0189    1.5398    0.0105 C.3       1 <0>        -0.0334
      9 H3         -0.4740    1.9017    0.9324 H         1 <0>         0.1081
     10 C6          0.0021   -0.0041    0.0020 C.3       1 <0>         0.1278
     11 H4         -0.8228   -0.4001    0.5943 H         1 <0>         0.0703
     12 C7          1.3287   -0.3600    0.6367 C.2       1 <0>        -0.1743
     13 C8          2.1369    0.6666    0.6392 C.2       1 <0>        -0.1145
     14 C9          3.5347    0.6536    1.2020 C.3       1 <0>         0.1258
     15 O2          3.8258   -0.6443    1.7243 O.3       1 <0>        -0.5711
     16 O3         -0.0601   -0.4978   -1.3375 O.3       1 <0>        -0.5479
     17 O4          3.3018    2.6594   -1.3443 O.3       1 <0>        -0.3481
     18 C10         3.9642    2.7652   -2.6060 C.3       1 <0>         0.2265
     19 H5          3.3167    3.2822   -3.3142 H         1 <0>         0.0792
     20 C11         5.2658    3.5529   -2.4348 C.3       1 <0>         0.0608
     21 H6          5.8966    3.0580   -1.6964 H         1 <0>         0.0818
     22 C12         5.9991    3.6103   -3.7784 C.3       1 <0>         0.0847
     23 H7          5.3907    4.1493   -4.5047 H         1 <0>         0.0785
     24 C13         6.2449    2.1823   -4.2750 C.3       1 <0>         0.0909
     25 H8          6.8955    1.6597   -3.5737 H         1 <0>         0.0791
     26 C14         4.9055    1.4476   -4.3751 C.3       1 <0>         0.1114
     27 H9          4.2705    1.9474   -5.1065 H         1 <0>         0.0823
     28 O5          4.2618    1.4575   -3.0993 O.3       1 <0>        -0.3781
     29 C15         5.1479    0.0018   -4.8131 C.3       1 <0>         0.0907
     30 O6          3.8931   -0.6506   -5.0178 O.3       1 <0>        -0.5647
     31 O7          6.8639    2.2242   -5.5622 O.3       1 <0>        -0.5497
     32 O8          7.2502    4.2805   -3.6119 O.3       1 <0>        -0.5558
     33 O9          4.9668    4.8798   -1.9968 O.3       1 <0>        -0.5538
     34 H10        -1.8203    1.9696   -1.2018 H         1 <0>         0.1270
     35 H11        -0.7594    2.9940   -3.0152 H         1 <0>         0.1661
     36 H12         1.5749   -1.3334    1.0345 H         1 <0>         0.1387
     37 H13         4.2465    0.8956    0.4128 H         1 <0>         0.0657
     38 H14         3.6120    1.3920    2.0000 H         1 <0>         0.0591
     39 H15         4.7115   -0.7260    2.1039 H         1 <0>         0.3852
     40 H16        -0.0501   -1.4626   -1.4019 H         1 <0>         0.3793
     41 H17         5.7172   -0.0057   -5.7426 H         1 <0>         0.0775
     42 H18         5.7083   -0.5232   -4.0395 H         1 <0>         0.0558
     43 H19         3.9704   -1.5730   -5.2977 H         1 <0>         0.3839
     44 H20         7.7186    2.6763   -5.5731 H         1 <0>         0.3945
     45 H21         7.1696    5.1918   -3.2987 H         1 <0>         0.3951
     46 H22         4.4971    4.9189   -1.1525 H         1 <0>         0.3941
@<TRIPOS>BOND
     1    1    8 1
     2    1    2 2
     3    1   34 1
     4    2    3 1
     5    2   35 1
     6    3    4 1
     7    4    5 1
     8    4    6 1
     9    4   17 1
    10    6    7 1
    11    6   13 1
    12    6    8 1
    13    8    9 1
    14    8   10 1
    15   10   11 1
    16   10   12 1
    17   10   16 1
    18   12   13 2
    19   12   36 1
    20   13   14 1
    21   14   15 1
    22   14   37 1
    23   14   38 1
    24   15   39 1
    25   16   40 1
    26   17   18 1
    27   18   19 1
    28   18   28 1
    29   18   20 1
    30   20   21 1
    31   20   22 1
    32   20   33 1
    33   22   23 1
    34   22   24 1
    35   22   32 1
    36   24   25 1
    37   24   26 1
    38   24   31 1
    39   26   27 1
    40   26   28 1
    41   26   29 1
    42   29   30 1
    43   29   41 1
    44   29   42 1
    45   30   43 1
    46   31   44 1
    47   32   45 1
    48   33   46 1
@<TRIPOS>MOLECULE
ZINC35271482
   59    62     0     0     0
SMALL
USER_CHARGES

@<TRIPOS>ATOM
      1 C1          2.6195    0.3716    1.5936 C.3       1 <0>        -0.1525
      2 C2          1.7719   -0.8080    1.1129 C.3       1 <0>         0.0550
      3 H1          0.7652   -0.4611    0.8798 H         1 <0>         0.1017
      4 C3          2.4061   -1.4147   -0.1414 C.3       1 <0>         0.0894
      5 H2          3.4272   -1.7249    0.0803 H         1 <0>         0.0683
      6 C4          1.5857   -2.6312   -0.5815 C.3       1 <0>         0.1253
      7 H3          2.0633   -3.1014   -1.4411 H         1 <0>         0.0623
      8 C5          1.5153   -3.6316    0.5763 C.3       1 <0>         0.0653
      9 H4          2.5185   -3.9866    0.8126 H         1 <0>         0.0767
     10 C6          0.9155   -2.9393    1.8029 C.3       1 <0>         0.2165
     11 H5          0.9025   -3.6343    2.6425 H         1 <0>         0.1086
     12 O1          1.7084   -1.7992    2.1403 O.3       1 <0>        -0.3885
     13 O2         -0.4191   -2.5215    1.5093 O.3       1 <0>        -0.2976
     14 C7         -1.1655   -2.1112    2.6568 C.3       1 <0>         0.0769
     15 H6         -0.4805   -1.7821    3.4382 H         1 <0>         0.0883
     16 C8         -2.0016   -3.2872    3.1709 C.3       1 <0>         0.0980
     17 H7         -2.5328   -2.9892    4.0749 H         1 <0>         0.0783
     18 C9         -3.0118   -3.6911    2.0926 C.3       1 <0>         0.0517
     19 H8         -3.6481   -4.4912    2.4710 H         1 <0>         0.0679
     20 C10        -3.8742   -2.4786    1.7325 C.3       1 <0>         0.0691
     21 H9         -4.4368   -2.1592    2.6098 H         1 <0>         0.0724
     22 O3         -3.0326   -1.4112    1.2914 O.3       1 <0>        -0.3562
     23 C11        -2.0981   -0.9586    2.2752 C.3       1 <0>         0.2657
     24 H10        -2.6374   -0.6194    3.1596 H         1 <0>         0.0764
     25 O4         -1.3281    0.1211    1.7429 O.3       1 <0>        -0.2649
     26 C12        -1.9734    1.2987    1.5437 C.ar      1 <0>         0.1925
     27 C13        -3.2946    1.4424    1.9637 C.ar      1 <0>        -0.2082
     28 C14        -3.9571    2.6197    1.7703 C.ar      1 <0>        -0.0119
     29 C15        -3.3057    3.6900    1.1465 C.ar      1 <0>        -0.1981
     30 C16        -3.9914    4.9650    0.9263 C.2       1 <0>         0.0121
     31 C17        -3.3049    5.9659    0.3159 C.2       1 <0>        -0.2586
     32 C18        -1.9694    5.7572   -0.0852 C.2       1 <0>         0.5097
     33 O5         -1.3654    6.6629   -0.6314 O.2       1 <0>        -0.4631
     34 O6         -1.3464    4.5861    0.1199 O.3       1 <0>        -0.2691
     35 C19        -1.9716    3.5510    0.7206 C.ar      1 <0>         0.1875
     36 C20        -1.3117    2.3493    0.9298 C.ar      1 <0>        -0.1685
     37 C21        -4.8461   -2.8581    0.6134 C.3       1 <0>         0.0833
     38 O7         -5.7285   -1.7636    0.3574 O.3       1 <0>        -0.5623
     39 O8         -2.3144   -4.1446    0.9308 O.3       1 <0>        -0.5074
     40 O9         -1.1438   -4.3922    3.4627 O.3       1 <0>        -0.5445
     41 O10         0.6930   -4.7386    0.2016 O.3       1 <0>        -0.5376
     42 O11         0.2657   -2.2146   -0.9365 O.3       1 <0>        -0.5223
     43 O12         2.4191   -0.4420   -1.1882 O.3       1 <0>        -0.5436
     44 H11         3.6098    0.0155    1.8776 H         1 <0>         0.0624
     45 H12         2.7127    1.1030    0.7909 H         1 <0>         0.0720
     46 H13         2.1398    0.8365    2.4549 H         1 <0>         0.0686
     47 H14        -3.7974    0.6167    2.4450 H         1 <0>         0.1369
     48 H15        -4.9810    2.7250    2.0972 H         1 <0>         0.1428
     49 H16        -5.0151    5.1058    1.2403 H         1 <0>         0.1532
     50 H17        -3.7811    6.9188    0.1380 H         1 <0>         0.1639
     51 H18        -0.2865    2.2316    0.6111 H         1 <0>         0.1515
     52 H19        -4.2851   -3.0917   -0.2914 H         1 <0>         0.0630
     53 H20        -5.4265   -3.7296    0.9163 H         1 <0>         0.0635
     54 H21        -6.3738   -1.9340   -0.3424 H         1 <0>         0.3850
     55 H22        -2.8934   -4.4172    0.2059 H         1 <0>         0.3682
     56 H23        -1.6076   -5.1735    3.7937 H         1 <0>         0.3842
     57 H24         0.6038   -5.4128    0.8890 H         1 <0>         0.3835
     58 H25        -0.3099   -2.9357   -1.2256 H         1 <0>         0.3803
     59 H26         2.9183    0.3583   -0.9752 H         1 <0>         0.3773
@<TRIPOS>BOND
     1    1    2 1
     2    1   44 1
     3    1   45 1
     4    1   46 1
     5    2    3 1
     6    2   12 1
     7    2    4 1
     8    4    5 1
     9    4    6 1
    10    4   43 1
    11    6    7 1
    12    6    8 1
    13    6   42 1
    14    8    9 1
    15    8   10 1
    16    8   41 1
    17   10   11 1
    18   10   12 1
    19   10   13 1
    20   13   14 1
    21   14   15 1
    22   14   23 1
    23   14   16 1
    24   16   17 1
    25   16   18 1
    26   16   40 1
    27   18   19 1
    28   18   20 1
    29   18   39 1
    30   20   21 1
    31   20   22 1
    32   20   37 1
    33   22   23 1
    34   23   24 1
    35   23   25 1
    36   25   26 1
    37   26   36 ar
    38   26   27 ar
    39   27   28 ar
    40   27   47 1
    41   28   29 ar
    42   28   48 1
    43   29   35 ar
    44   29   30 1
    45   30   31 2
    46   30   49 1
    47   31   32 1
    48   31   50 1
    49   32   33 2
    50   32   34 1
    51   34   35 1
    52   35   36 ar
    53   36   51 1
    54   37   38 1
    55   37   52 1
    56   37   53 1
    57   38   54 1
    58   39   55 1
    59   40   56 1
    60   41   57 1
    61   42   58 1
    62   43   59 1
@<TRIPOS>MOLECULE
ZINC35455248
   60    63     0     0     0
SMALL
USER_CHARGES

@<TRIPOS>ATOM
      1 C1         -0.0169    1.3937    0.0097 C.ar      1 <0>        -0.0351
      2 C2          1.1671    2.0963    0.0022 C.ar      1 <0>        -0.1580
      3 C3          2.3803    1.4177   -0.0131 C.ar      1 <0>         0.1469
      4 C4          2.4036    0.0278   -0.0212 C.ar      1 <0>        -0.1602
      5 C5          1.2242   -0.6825   -0.0142 C.ar      1 <0>        -0.0425
      6 C6          0.0021   -0.0041    0.0020 C.ar      1 <0>        -0.1381
      7 C7         -1.2636   -0.7608    0.0105 C.2       1 <0>         0.5106
      8 O1         -2.3249   -0.1693    0.0242 O.2       1 <0>        -0.4986
      9 O2         -1.2432   -2.1080    0.0031 O.3       1 <0>        -0.3260
     10 C8         -2.5064   -2.7761    0.0121 C.3       1 <0>         0.0968
     11 H1         -3.2677   -2.1676   -0.4761 H         1 <0>         0.0978
     12 C9         -2.9239   -3.1258    1.4365 C.2       1 <0>        -0.1598
     13 C10        -2.5602   -4.3643    1.7328 C.2       1 <0>        -0.0816
     14 C11        -1.8324   -4.9432    0.5751 C.3       1 <0>        -0.0839
     15 H2         -0.7733   -4.7064    0.6763 H         1 <0>         0.1190
     16 C12        -2.3993   -4.1503   -0.6541 C.3       1 <0>         0.1690
     17 C13        -1.3229   -4.3165   -1.6913 C.2       1 <0>        -0.2904
     18 C14        -0.9025   -5.5801   -1.8130 C.2       1 <0>         0.0911
     19 O3         -1.4251   -6.5960   -1.0960 O.3       1 <0>        -0.3504
     20 C15        -1.9681   -6.4029    0.2288 C.3       1 <0>         0.2778
     21 H3         -1.4104   -7.0056    0.9455 H         1 <0>         0.1113
     22 O4         -3.3467   -6.7786    0.2483 O.3       1 <0>        -0.3191
     23 C16        -3.5665   -8.1875    0.1554 C.3       1 <0>         0.2227
     24 H4         -2.9965   -8.5899   -0.6821 H         1 <0>         0.0647
     25 C17        -5.0572   -8.4583   -0.0647 C.3       1 <0>         0.0702
     26 H5         -5.3720   -8.0164   -1.0101 H         1 <0>         0.0691
     27 C18        -5.2931   -9.9713   -0.1030 C.3       1 <0>         0.0784
     28 H6         -4.7586  -10.4023   -0.9496 H         1 <0>         0.0771
     29 C19        -4.7757  -10.5908    1.1989 C.3       1 <0>         0.0918
     30 H7         -4.8892  -11.6740    1.1571 H         1 <0>         0.0721
     31 C20        -3.2960  -10.2377    1.3701 C.3       1 <0>         0.1154
     32 H8         -2.7224  -10.6670    0.5486 H         1 <0>         0.0789
     33 O5         -3.1429   -8.8169    1.3664 O.3       1 <0>        -0.3742
     34 C21        -2.7869  -10.8025    2.6978 C.3       1 <0>         0.0896
     35 O6         -1.3803  -10.5745    2.8043 O.3       1 <0>        -0.5694
     36 O7         -5.5219  -10.0747    2.3029 O.3       1 <0>        -0.5292
     37 O8         -6.6914  -10.2338   -0.2367 O.3       1 <0>        -0.5486
     38 O9         -5.8100   -7.8833    1.0053 O.3       1 <0>        -0.5240
     39 O10        -3.6680   -4.6394   -1.0938 O.3       1 <0>        -0.5077
     40 C22        -2.8392   -5.0713    3.0341 C.3       1 <0>         0.1265
     41 O11        -3.5606   -4.1981    3.9055 O.3       1 <0>        -0.5693
     42 O12         3.5450    2.1140   -0.0204 O.3       1 <0>        -0.4969
     43 H9         -0.9589    1.9217    0.0260 H         1 <0>         0.1437
     44 H10         1.1534    3.1762    0.0077 H         1 <0>         0.1412
     45 H11         3.3482   -0.4956   -0.0334 H         1 <0>         0.1396
     46 H12         1.2432   -1.7624   -0.0209 H         1 <0>         0.1430
     47 H13        -3.4422   -2.4579    2.1086 H         1 <0>         0.1431
     48 H14        -0.9300   -3.4992   -2.2779 H         1 <0>         0.1454
     49 H15        -0.1112   -5.7964   -2.5155 H         1 <0>         0.1634
     50 H16        -3.2988  -10.3077    3.5232 H         1 <0>         0.0688
     51 H17        -2.9854  -11.8735    2.7369 H         1 <0>         0.0631
     52 H18        -0.9888  -10.9075    3.6235 H         1 <0>         0.3833
     53 H19        -6.4702  -10.2586    2.2570 H         1 <0>         0.3846
     54 H20        -7.0862   -9.8637   -1.0381 H         1 <0>         0.3863
     55 H21        -5.7039   -6.9260    1.0908 H         1 <0>         0.3810
     56 H22        -4.0958   -4.0817   -1.7579 H         1 <0>         0.3799
     57 H23        -3.4330   -5.9649    2.8421 H         1 <0>         0.0753
     58 H24        -1.8969   -5.3550    3.5028 H         1 <0>         0.0588
     59 H25        -3.7750   -4.5882    4.7639 H         1 <0>         0.3864
     60 H26         3.8910    2.3110    0.8608 H         1 <0>         0.3994
@<TRIPOS>BOND
     1    1    6 ar
     2    1    2 ar
     3    1   43 1
     4    2    3 ar
     5    2   44 1
     6    3    4 ar
     7    3   42 1
     8    4    5 ar
     9    4   45 1
    10    5    6 ar
    11    5   46 1
    12    6    7 1
    13    7    8 2
    14    7    9 1
    15    9   10 1
    16   10   11 1
    17   10   16 1
    18   10   12 1
    19   12   13 2
    20   12   47 1
    21   13   14 1
    22   13   40 1
    23   14   15 1
    24   14   20 1
    25   14   16 1
    26   16   17 1
    27   16   39 1
    28   17   18 2
    29   17   48 1
    30   18   19 1
    31   18   49 1
    32   19   20 1
    33   20   21 1
    34   20   22 1
    35   22   23 1
    36   23   24 1
    37   23   33 1
    38   23   25 1
    39   25   26 1
    40   25   27 1
    41   25   38 1
    42   27   28 1
    43   27   29 1
    44   27   37 1
    45   29   30 1
    46   29   31 1
    47   29   36 1
    48   31   32 1
    49   31   33 1
    50   31   34 1
    51   34   35 1
    52   34   50 1
    53   34   51 1
    54   35   52 1
    55   36   53 1
    56   37   54 1
    57   38   55 1
    58   39   56 1
    59   40   41 1
    60   40   57 1
    61   40   58 1
    62   41   59 1
    63   42   60 1
@<TRIPOS>MOLECULE
ZINC09214623
   78    81     0     0     0
SMALL
USER_CHARGES

@<TRIPOS>ATOM
      1 C1         -0.6071    1.3397   -0.3308 C.3       1 <0>        -0.1517
      2 C2         -0.2995   -0.1477   -0.1472 C.3       1 <0>        -0.0422
      3 C3          1.0667   -0.4421   -0.7167 C.3       1 <0>        -0.1201
      4 C4          2.0547    0.5802   -0.1227 C.3       1 <0>        -0.1148
      5 C5          2.0657    0.5116    1.3999 C.3       1 <0>        -0.0495
      6 H1          2.4731   -0.4677    1.6512 H         1 <0>         0.0905
      7 C6          0.6711    0.5378    1.9651 C.2       1 <0>        -0.0431
      8 C7          0.2584    1.3982    2.8862 C.2       1 <0>        -0.2286
      9 C8          1.1887    2.4287    3.3737 C.2       1 <0>         0.3973
     10 O1          1.0611    2.9487    4.4625 O.2       1 <0>        -0.4446
     11 C9          2.3163    2.7998    2.4320 C.3       1 <0>        -0.1195
     12 H2          1.9120    3.3022    1.5532 H         1 <0>         0.1014
     13 C10         3.0014    1.5210    2.0129 C.3       1 <0>        -0.0371
     14 C11         4.1474    1.8663    1.0616 C.3       1 <0>        -0.1001
     15 C12         5.1357    2.7906    1.7774 C.3       1 <0>         0.0733
     16 H3          5.9517    3.0431    1.1003 H         1 <0>         0.0584
     17 C13         4.4209    4.0708    2.2128 C.3       1 <0>         0.0762
     18 H4          4.0275    4.5831    1.3348 H         1 <0>         0.0632
     19 C14         3.3003    3.7251    3.1490 C.3       1 <0>        -0.1013
     20 O2          5.3457    4.9259    2.8877 O.3       1 <0>        -0.5624
     21 O3          5.6610    2.1254    2.9280 O.3       1 <0>        -0.5449
     22 C15         3.6201    0.8944    3.2641 C.3       1 <0>        -0.1536
     23 C16        -0.2729   -0.4727    1.3744 C.3       1 <0>         0.1526
     24 C17        -1.7552   -0.3359    1.7309 C.3       1 <0>        -0.1389
     25 C18        -2.4623   -1.0373    0.5368 C.3       1 <0>        -0.1089
     26 C19        -1.4757   -0.9635   -0.6580 C.3       1 <0>        -0.0919
     27 H5         -1.9441   -0.4631   -1.5056 H         1 <0>         0.0864
     28 C20        -1.0163   -2.3676   -1.0557 C.3       1 <0>         0.1135
     29 C21        -2.2368   -3.2296   -1.3846 C.3       1 <0>        -0.1511
     30 C22        -0.1088   -2.2785   -2.2843 C.3       1 <0>         0.0482
     31 H6          0.8192   -1.7743   -2.0148 H         1 <0>         0.1254
     32 C23         0.2048   -3.6880   -2.7900 C.3       1 <0>        -0.1501
     33 C24         1.2104   -3.6052   -3.9402 C.3       1 <0>        -0.1395
     34 C25         1.5240   -5.0147   -4.4459 C.3       1 <0>         0.1253
     35 C26         2.6209   -4.9424   -5.5101 C.3       1 <0>        -0.1799
     36 C27         2.0022   -5.8807   -3.2787 C.3       1 <0>        -0.1434
     37 O4          0.3459   -5.5899   -5.0145 O.3       1 <0>        -0.5597
     38 O5         -0.7709   -1.5397   -3.3129 O.3       1 <0>        -0.5543
     39 O6         -0.2946   -2.9573    0.0277 O.3       1 <0>        -0.5268
     40 O7          0.2059   -1.7977    1.6137 O.3       1 <0>        -0.5147
     41 H7          0.1780    1.9336    0.1372 H         1 <0>         0.0646
     42 H8         -0.6536    1.5726   -1.3946 H         1 <0>         0.0646
     43 H9         -1.5650    1.5728    0.1343 H         1 <0>         0.0596
     44 H10         1.3712   -1.4521   -0.4424 H         1 <0>         0.0744
     45 H11         1.0429   -0.3449   -1.8021 H         1 <0>         0.0880
     46 H12         3.0562    0.3691   -0.4975 H         1 <0>         0.0745
     47 H13         1.7616    1.5831   -0.4334 H         1 <0>         0.0717
     48 H14        -0.7483    1.3434    3.2734 H         1 <0>         0.1379
     49 H15         4.6577    0.9518    0.7593 H         1 <0>         0.0814
     50 H16         3.7499    2.3705    0.1808 H         1 <0>         0.0811
     51 H17         2.7908    4.6439    3.4393 H         1 <0>         0.0758
     52 H18         3.6880    3.2264    4.0373 H         1 <0>         0.0915
     53 H19         6.1026    5.1910    2.3475 H         1 <0>         0.3784
     54 H20         6.2958    2.6531    3.4317 H         1 <0>         0.3739
     55 H21         4.3660    0.1561    2.9698 H         1 <0>         0.0621
     56 H22         4.0949    1.6717    3.8629 H         1 <0>         0.0951
     57 H23         2.8403    0.4091    3.8511 H         1 <0>         0.0374
     58 H24        -1.9764   -0.8495    2.6665 H         1 <0>         0.0719
     59 H25        -2.0434    0.7138    1.7878 H         1 <0>         0.0777
     60 H26        -2.6726   -2.0776    0.7849 H         1 <0>         0.0782
     61 H27        -3.3876   -0.5161    0.2911 H         1 <0>         0.0601
     62 H28        -2.8425   -2.7287   -2.1398 H         1 <0>         0.0627
     63 H29        -1.9070   -4.1961   -1.7657 H         1 <0>         0.0661
     64 H30        -2.8305   -3.3781   -0.4826 H         1 <0>         0.0674
     65 H31         0.6290   -4.2792   -1.9785 H         1 <0>         0.0802
     66 H32        -0.7123   -4.1600   -3.1425 H         1 <0>         0.0741
     67 H33         0.7862   -3.0140   -4.7518 H         1 <0>         0.0692
     68 H34         2.1275   -3.1332   -3.5877 H         1 <0>         0.0674
     69 H35         3.5195   -4.5036   -5.0764 H         1 <0>         0.0650
     70 H36         2.8444   -5.9466   -5.8704 H         1 <0>         0.0634
     71 H37         2.2803   -4.3254   -6.3417 H         1 <0>         0.0575
     72 H38         1.2207   -5.9322   -2.5206 H         1 <0>         0.0674
     73 H39         2.2256   -6.8848   -3.6390 H         1 <0>         0.0606
     74 H40         2.9008   -5.4419   -2.8450 H         1 <0>         0.0684
     75 H41        -0.0137   -5.0922   -5.7615 H         1 <0>         0.3740
     76 H42        -1.5581   -1.9763   -3.6662 H         1 <0>         0.3708
     77 H43         0.5975   -2.6033    0.1449 H         1 <0>         0.3766
     78 H44         0.2385   -2.0411    2.5490 H         1 <0>         0.3702
@<TRIPOS>BOND
     1    1    2 1
     2    1   41 1
     3    1   42 1
     4    1   43 1
     5    2   23 1
     6    2   26 1
     7    2    3 1
     8    3    4 1
     9    3   44 1
    10    3   45 1
    11    4    5 1
    12    4   46 1
    13    4   47 1
    14    5    6 1
    15    5   13 1
    16    5    7 1
    17    7    8 2
    18    7   23 1
    19    8    9 1
    20    8   48 1
    21    9   10 2
    22    9   11 1
    23   11   12 1
    24   11   19 1
    25   11   13 1
    26   13   14 1
    27   13   22 1
    28   14   15 1
    29   14   49 1
    30   14   50 1
    31   15   16 1
    32   15   17 1
    33   15   21 1
    34   17   18 1
    35   17   19 1
    36   17   20 1
    37   19   51 1
    38   19   52 1
    39   20   53 1
    40   21   54 1
    41   22   55 1
    42   22   56 1
    43   22   57 1
    44   23   24 1
    45   23   40 1
    46   24   25 1
    47   24   58 1
    48   24   59 1
    49   25   26 1
    50   25   60 1
    51   25   61 1
    52   26   27 1
    53   26   28 1
    54   28   29 1
    55   28   30 1
    56   28   39 1
    57   29   62 1
    58   29   63 1
    59   29   64 1
    60   30   31 1
    61   30   32 1
    62   30   38 1
    63   32   33 1
    64   32   65 1
    65   32   66 1
    66   33   34 1
    67   33   67 1
    68   33   68 1
    69   34   35 1
    70   34   36 1
    71   34   37 1
    72   35   69 1
    73   35   70 1
    74   35   71 1
    75   36   72 1
    76   36   73 1
    77   36   74 1
    78   37   75 1
    79   38   76 1
    80   39   77 1
    81   40   78 1
@<TRIPOS>MOLECULE
ZINC65748744
   53    55     0     0     0
SMALL
USER_CHARGES

@<TRIPOS>ATOM
      1 C1          0.4596    2.5273   -0.3667 C.3       1 <0>        -0.1819
      2 C2          0.2394    1.0145   -0.4301 C.3       1 <0>         0.4189
      3 O1          0.9066    0.4865   -1.5773 O.3       1 <0>        -0.3975
      4 C3          2.3306    0.6474   -1.5599 C.3       1 <0>         0.0835
      5 C4          2.8740   -0.0167   -0.2940 C.3       1 <0>         0.0423
      6 H1          2.6729   -1.0874   -0.3311 H         1 <0>         0.0766
      7 C5          2.1613    0.5950    0.9190 C.3       1 <0>         0.0721
      8 H2          2.3835    1.6608    0.9717 H         1 <0>         0.0942
      9 O2          0.7550    0.4093    0.7610 O.3       1 <0>        -0.3868
     10 C6          2.6712   -0.0952    2.1841 C.3       1 <0>         0.1275
     11 H3          2.4361   -1.1587    2.1414 H         1 <0>         0.0789
     12 C7          4.1913    0.0941    2.2612 C.3       1 <0>         0.0589
     13 H4          4.5808   -0.4463    3.1240 H         1 <0>         0.0768
     14 C8          4.8428   -0.4448    0.9864 C.3       1 <0>         0.2189
     15 H5          4.6735   -1.5195    0.9201 H         1 <0>         0.0969
     16 O3          4.2771    0.1983   -0.1599 O.3       1 <0>        -0.3463
     17 O4          6.2479   -0.1877    1.0268 O.3       1 <0>        -0.3199
     18 C9          6.9748   -0.7584   -0.0632 C.3       1 <0>         0.2781
     19 C10         8.4251   -0.2377   -0.0556 C.3       1 <0>         0.1024
     20 H6          9.1270   -1.0651    0.0486 H         1 <0>         0.0922
     21 C11         8.5911    0.4430   -1.4361 C.3       1 <0>         0.0423
     22 H7          9.5676    0.2190   -1.8654 H         1 <0>         0.0863
     23 C12         7.4587   -0.2182   -2.2624 C.3       1 <0>         0.0448
     24 H8          7.7725   -1.1950   -2.6307 H         1 <0>         0.0854
     25 O5          6.3827   -0.3558   -1.3096 O.3       1 <0>        -0.3184
     26 C13         7.0416    0.6854   -3.4245 C.3       1 <0>         0.0827
     27 O6          6.0819    0.0053   -4.2360 O.3       1 <0>        -0.5615
     28 O7          8.3925    1.8546   -1.3358 O.3       1 <0>        -0.5294
     29 O8          8.6108    0.7099    0.9978 O.3       1 <0>        -0.5170
     30 C14         6.9660   -2.2843    0.0481 C.3       1 <0>         0.0407
     31 O9          5.6317   -2.7667   -0.1225 O.3       1 <0>        -0.5517
     32 O10         4.4910    1.4848    2.3961 O.3       1 <0>        -0.5402
     33 O11         2.0516    0.4879    3.3323 O.3       1 <0>        -0.5356
     34 O12        -1.1599    0.7432   -0.5320 O.3       1 <0>        -0.3361
     35 C15        -1.4788   -0.6482   -0.5981 C.3       1 <0>         0.0280
     36 H9          1.5262    2.7361   -0.2842 H         1 <0>         0.0805
     37 H10         0.0678    2.9898   -1.2726 H         1 <0>         0.0874
     38 H11        -0.0584    2.9337    0.5020 H         1 <0>         0.0886
     39 H12         2.7648    0.1720   -2.4394 H         1 <0>         0.1179
     40 H13         2.5803    1.7084   -1.5542 H         1 <0>         0.0714
     41 H14         6.6012    1.6020   -3.0321 H         1 <0>         0.0654
     42 H15         7.9168    0.9312   -4.0258 H         1 <0>         0.0586
     43 H16         5.7721    0.5201   -4.9936 H         1 <0>         0.3834
     44 H17         8.4861    2.3256   -2.1751 H         1 <0>         0.3796
     45 H18         9.5066    1.0705    1.0491 H         1 <0>         0.3832
     46 H19         7.6072   -2.7087   -0.7244 H         1 <0>         0.0624
     47 H20         7.3362   -2.5792    1.0300 H         1 <0>         0.0686
     48 H21         5.5507   -3.7285   -0.0640 H         1 <0>         0.3809
     49 H22         5.4366    1.6798    2.4509 H         1 <0>         0.3888
     50 H23         2.3306    0.0962    4.1712 H         1 <0>         0.3799
     51 H24        -2.5593   -0.7700   -0.6741 H         1 <0>         0.0905
     52 H25        -1.0011   -1.0893   -1.4730 H         1 <0>         0.0540
     53 H26        -1.1193   -1.1465    0.3022 H         1 <0>         0.0532
@<TRIPOS>BOND
     1    1    2 1
     2    1   36 1
     3    1   37 1
     4    1   38 1
     5    2    9 1
     6    2    3 1
     7    2   34 1
     8    3    4 1
     9    4    5 1
    10    4   39 1
    11    4   40 1
    12    5    6 1
    13    5   16 1
    14    5    7 1
    15    7    8 1
    16    7    9 1
    17    7   10 1
    18   10   11 1
    19   10   12 1
    20   10   33 1
    21   12   13 1
    22   12   14 1
    23   12   32 1
    24   14   15 1
    25   14   16 1
    26   14   17 1
    27   17   18 1
    28   18   25 1
    29   18   19 1
    30   18   30 1
    31   19   20 1
    32   19   21 1
    33   19   29 1
    34   21   22 1
    35   21   23 1
    36   21   28 1
    37   23   24 1
    38   23   25 1
    39   23   26 1
    40   26   27 1
    41   26   41 1
    42   26   42 1
    43   27   43 1
    44   28   44 1
    45   29   45 1
    46   30   31 1
    47   30   46 1
    48   30   47 1
    49   31   48 1
    50   32   49 1
    51   33   50 1
    52   34   35 1
    53   35   51 1
    54   35   52 1
    55   35   53 1
@<TRIPOS>MOLECULE
ZINC16136377
   31    31     0     0     0
SMALL
USER_CHARGES
[[4-[(N'-carbamoylhydrazino)methyl]-2,5-dithioxo-1,3,4-thiadiazolidin-3-yl]methylamino]urea
@<TRIPOS>ATOM
      1 C1         -0.9982    3.4643    0.0256 C.3       1 <0>         0.2624
      2 N1         -1.2083    2.0104    0.0187 N.3       1 <0>        -0.4529
      3 N2         -0.0162    1.3436    0.0094 N.am      1 <0>        -0.5846
      4 C2          0.0021   -0.0041    0.0020 C.2       1 <0>         0.7254
      5 O1          1.0631   -0.5976   -0.0113 O.2       1 <0>        -0.5760
      6 N3         -1.1558   -0.6938    0.0094 N.am      1 <0>        -0.8544
      7 N4         -2.2954    4.1451    0.0355 N.pl3     1 <0>        -0.3608
      8 C3         -2.9054    4.4751   -1.1274 C.2       1 <0>         0.2678
      9 S1         -2.3785    4.2121   -2.7349 S.2       1 <0>        -0.2949
     10 S2         -4.4035    5.2543   -0.5471 S.3       1 <0>         0.1239
     11 C4         -4.1053    5.0921    1.2058 C.2       1 <0>         0.2677
     12 S3         -5.0802    5.6007    2.5180 S.2       1 <0>        -0.2947
     13 N5         -2.9068    4.4625    1.2268 N.pl3     1 <0>        -0.3607
     14 C5         -2.2689    4.1239    2.5014 C.3       1 <0>         0.2625
     15 N6         -1.4120    5.2370    2.9310 N.3       1 <0>        -0.4529
     16 N7         -0.8004    4.9537    4.1192 N.am      1 <0>        -0.5845
     17 C6          0.0300    5.8542    4.6813 C.2       1 <0>         0.7254
     18 O2          0.5743    5.6020    5.7388 O.2       1 <0>        -0.5761
     19 N8          0.2570    7.0343    4.0711 N.am      1 <0>        -0.8544
     20 H1         -0.4335    3.7456    0.9145 H         1 <0>         0.0737
     21 H2         -0.4420    3.7552   -0.8654 H         1 <0>         0.1567
     22 H3         -1.7771    1.7235    0.8012 H         1 <0>         0.3342
     23 H4          0.8172    1.8399    0.0041 H         1 <0>         0.4205
     24 H5         -2.0023   -0.2203    0.0200 H         1 <0>         0.4009
     25 H6         -1.1427   -1.6637    0.0040 H         1 <0>         0.4200
     26 H7         -3.0356    3.9438    3.2549 H         1 <0>         0.1567
     27 H8         -1.6633    3.2261    2.3774 H         1 <0>         0.0738
     28 H9         -0.7331    5.4659    2.2205 H         1 <0>         0.3340
     29 H10        -0.9638    4.1043    4.5583 H         1 <0>         0.4204
     30 H11        -0.1773    7.2355    3.2274 H         1 <0>         0.4010
     31 H12         0.8546    7.6824    4.4757 H         1 <0>         0.4200
@<TRIPOS>BOND
     1    1    2 1
     2    1    7 1
     3    1   20 1
     4    1   21 1
     5    2    3 1
     6    2   22 1
     7    3    4 am
     8    3   23 1
     9    4    5 2
    10    4    6 am
    11    6   24 1
    12    6   25 1
    13    7   13 1
    14    7    8 1
    15    8    9 2
    16    8   10 1
    17   10   11 1
    18   11   12 2
    19   11   13 1
    20   13   14 1
    21   14   15 1
    22   14   26 1
    23   14   27 1
    24   15   16 1
    25   15   28 1
    26   16   17 am
    27   16   29 1
    28   17   18 2
    29   17   19 am
    30   19   30 1
    31   19   31 1
@<TRIPOS>MOLECULE
ZINC18163797
   42    45     0     0     0
SMALL
USER_CHARGES

@<TRIPOS>ATOM
      1 C1          0.3187    2.0348    0.0152 C.ar      1 <0>        -0.1193
      2 C2          1.5581    2.6147   -0.1833 C.ar      1 <0>        -0.1205
      3 C3          2.6928    1.8243   -0.3106 C.ar      1 <0>        -0.0827
      4 C4          2.5608    0.4670   -0.2366 C.ar      1 <0>        -0.0643
      5 C5          1.3114   -0.1176   -0.0371 C.ar      1 <0>        -0.0612
      6 C6          0.1917    0.6538    0.0895 C.ar      1 <0>        -0.0801
      7 C7          1.3317   -1.6370    0.0212 C.3       1 <0>         0.0134
      8 C8          2.0347   -2.0770   -1.2531 C.ar      1 <0>        -0.0792
      9 C9          1.5272   -2.9651   -2.1580 C.ar      1 <0>        -0.1016
     10 C10         2.2793   -3.2779   -3.2827 C.ar      1 <0>        -0.1173
     11 C11         3.5195   -2.6991   -3.4795 C.ar      1 <0>        -0.1182
     12 C12         4.0295   -1.7968   -2.5551 C.ar      1 <0>        -0.1025
     13 C13         3.2841   -1.4928   -1.4519 C.ar      1 <0>        -0.0817
     14 C14         3.7062   -0.5259   -0.3572 C.3       1 <0>         0.0133
     15 C15         3.6737   -1.3479    0.9507 C.3       1 <0>        -0.0805
     16 H1          4.4303   -2.1309    0.8991 H         1 <0>         0.1006
     17 C16         2.3048   -1.9889    1.1686 C.3       1 <0>        -0.0810
     18 H2          2.4214   -3.0715    1.2185 H         1 <0>         0.1021
     19 C17         1.7305   -1.4953    2.4715 C.2       1 <0>         0.5060
     20 O1          1.0654   -0.4814    2.4957 O.2       1 <0>        -0.4805
     21 N1          1.9560   -2.1805    3.6100 N.am      1 <0>        -0.5761
     22 N2          1.3524   -1.7918    4.7721 N.3       1 <0>        -0.5978
     23 C18         3.9824   -0.4392    2.1126 C.2       1 <0>         0.5022
     24 O2          3.6280    0.7203    2.0864 O.2       1 <0>        -0.4731
     25 N3          4.6525   -0.9152    3.1808 N.am      1 <0>        -0.5849
     26 N4          5.0223   -0.0692    4.1875 N.3       1 <0>        -0.6004
     27 H3         -0.5559    2.6601    0.1177 H         1 <0>         0.1153
     28 H4          1.6443    3.6898   -0.2401 H         1 <0>         0.1147
     29 H5          3.6621    2.2747   -0.4657 H         1 <0>         0.1138
     30 H6         -0.7751    0.1983    0.2448 H         1 <0>         0.1160
     31 H7          0.3414   -2.0733    0.1515 H         1 <0>         0.1100
     32 H8          0.5585   -3.4163   -2.0016 H         1 <0>         0.1274
     33 H9          1.8931   -3.9784   -4.0084 H         1 <0>         0.1239
     34 H10         4.0955   -2.9505   -4.3578 H         1 <0>         0.1235
     35 H11         4.9982   -1.3437   -2.7060 H         1 <0>         0.1259
     36 H12         4.6664   -0.0492   -0.5545 H         1 <0>         0.1072
     37 H13         2.5469   -2.9498    3.6041 H         1 <0>         0.3912
     38 H14         1.6149   -2.3967    5.5358 H         1 <0>         0.3525
     39 H15         1.5638   -0.8284    4.9847 H         1 <0>         0.3496
     40 H16         4.8721   -1.8584    3.2347 H         1 <0>         0.3928
     41 H17         5.5137   -0.5661    4.9152 H         1 <0>         0.3546
     42 H18         5.5781    0.6944    3.8323 H         1 <0>         0.3468
@<TRIPOS>BOND
     1    1    6 ar
     2    1    2 ar
     3    1   27 1
     4    2    3 ar
     5    2   28 1
     6    3    4 ar
     7    3   29 1
     8    4   14 1
     9    4    5 ar
    10    5    6 ar
    11    5    7 1
    12    6   30 1
    13    7   17 1
    14    7    8 1
    15    7   31 1
    16    8   13 ar
    17    8    9 ar
    18    9   10 ar
    19    9   32 1
    20   10   11 ar
    21   10   33 1
    22   11   12 ar
    23   11   34 1
    24   12   13 ar
    25   12   35 1
    26   13   14 1
    27   14   15 1
    28   14   36 1
    29   15   16 1
    30   15   17 1
    31   15   23 1
    32   17   18 1
    33   17   19 1
    34   19   20 2
    35   19   21 am
    36   21   22 1
    37   21   37 1
    38   22   38 1
    39   22   39 1
    40   23   24 2
    41   23   25 am
    42   25   26 1
    43   25   40 1
    44   26   41 1
    45   26   42 1
@<TRIPOS>MOLECULE
ZINC42691448
   40    40     0     0     0
SMALL
USER_CHARGES

@<TRIPOS>ATOM
      1 C1         -0.0187    1.5258    0.0104 C.3       1 <0>        -0.1487
      2 C2          0.0021   -0.0041    0.0020 C.3       1 <0>        -0.1153
      3 C3          0.7421   -0.5109    1.2415 C.3       1 <0>        -0.1474
      4 C4         -1.4333   -0.5336    0.0129 C.3       1 <0>         0.1294
      5 N1         -2.1054   -0.1483   -1.2305 N.pl3     1 <0>        -0.6024
      6 C5         -2.0486   -1.0315   -2.3980 C.3       1 <0>         0.0993
      7 C6         -3.2125   -1.9881   -2.3612 C.2       1 <0>         0.4896
      8 O1         -4.0108   -1.9371   -1.4496 O.2       1 <0>        -0.5260
      9 N2         -3.3663   -2.9003   -3.3414 N.am      1 <0>        -0.8558
     10 C7         -2.8003    1.0611   -1.3029 C.ar      1 <0>         0.2518
     11 C8         -2.8498    1.9010   -0.1991 C.ar      1 <0>        -0.2154
     12 C9         -3.5412    3.1016   -0.2753 C.ar      1 <0>         0.2414
     13 C10        -4.1818    3.4592   -1.4558 C.ar      1 <0>        -0.1546
     14 C11        -4.1306    2.6209   -2.5525 C.ar      1 <0>        -0.5796
     15 C12        -3.4380    1.4273   -2.4819 C.ar      1 <0>        -0.1512
     16 S1         -4.9440    3.0781   -4.0472 S.o2      1 <0>         2.6992
     17 O2         -5.2053    1.8725   -4.7525 O.2       1 <0>        -0.9635
     18 O3         -5.9738    3.9886   -3.6870 O.2       1 <0>        -0.9608
     19 N3         -3.8543    3.9316   -4.9563 N.pl3     1 <0>        -1.2479
     20 N4         -3.5939    3.9496    0.8333 N.pl3     1 <0>        -0.8736
     21 H1          1.0039    1.9031    0.0027 H         1 <0>         0.0516
     22 H2         -0.5459    1.8868   -0.8726 H         1 <0>         0.0626
     23 H3         -0.5289    1.8773    0.9072 H         1 <0>         0.0539
     24 H4          0.5123   -0.3556   -0.8948 H         1 <0>         0.0723
     25 H5          0.2319   -0.1594    2.1383 H         1 <0>         0.0561
     26 H6          0.7568   -1.6008    1.2356 H         1 <0>         0.0559
     27 H7          1.7647   -0.1336    1.2338 H         1 <0>         0.0590
     28 H8         -1.4190   -1.6203    0.0965 H         1 <0>         0.0758
     29 H9         -1.9701   -0.1109    0.8621 H         1 <0>         0.0788
     30 H10        -2.0980   -0.4341   -3.3083 H         1 <0>         0.1096
     31 H11        -1.1152   -1.5942   -2.3828 H         1 <0>         0.1094
     32 H12        -2.7278   -2.9411   -4.0705 H         1 <0>         0.4017
     33 H13        -4.1154   -3.5160   -3.3178 H         1 <0>         0.4033
     34 H14        -2.3515    1.6206    0.7171 H         1 <0>         0.1338
     35 H15        -4.7204    4.3934   -1.5156 H         1 <0>         0.1361
     36 H16        -3.3959    0.7764   -3.3426 H         1 <0>         0.1317
     37 H17        -3.9053    3.9063   -5.9246 H         1 <0>         0.4208
     38 H18        -3.1651    4.4569   -4.5205 H         1 <0>         0.4174
     39 H19        -3.1470    3.6993    1.6570 H         1 <0>         0.3996
     40 H20        -4.0774    4.7887    0.7795 H         1 <0>         0.4022
@<TRIPOS>BOND
     1    1    2 1
     2    1   21 1
     3    1   22 1
     4    1   23 1
     5    2    3 1
     6    2    4 1
     7    2   24 1
     8    3   25 1
     9    3   26 1
    10    3   27 1
    11    4    5 1
    12    4   28 1
    13    4   29 1
    14    5    6 1
    15    5   10 1
    16    6    7 1
    17    6   30 1
    18    6   31 1
    19    7    8 2
    20    7    9 am
    21    9   32 1
    22    9   33 1
    23   10   15 ar
    24   10   11 ar
    25   11   12 ar
    26   11   34 1
    27   12   13 ar
    28   12   20 1
    29   13   14 ar
    30   13   35 1
    31   14   15 ar
    32   14   16 1
    33   15   36 1
    34   16   17 2
    35   16   18 2
    36   16   19 1
    37   19   37 1
    38   19   38 1
    39   20   39 1
    40   20   40 1
@<TRIPOS>MOLECULE
ZINC53114730
   44    45     0     0     0
SMALL
USER_CHARGES

@<TRIPOS>ATOM
      1 C1          0.2663    1.2167   -0.7212 C.3       1 <0>        -0.1486
      2 C2          0.1768   -0.2787   -0.4105 C.3       1 <0>        -0.0833
      3 H1         -0.8699   -0.5813   -0.3792 H         1 <0>         0.0721
      4 C3          0.9042   -1.0702   -1.4993 C.3       1 <0>        -0.1168
      5 C4          0.8147   -2.5656   -1.1887 C.3       1 <0>        -0.1205
      6 C5          1.4671   -2.8449    0.1668 C.3       1 <0>        -0.1167
      7 C6          0.7398   -2.0534    1.2556 C.3       1 <0>         0.1894
      8 C7          0.8293   -0.5579    0.9449 C.3       1 <0>        -0.1384
      9 C8          1.3922   -2.3326    2.6111 C.3       1 <0>         0.0484
     10 O1          1.2987   -3.7277    2.9063 O.3       1 <0>        -0.5627
     11 N1         -0.6670   -2.4601    1.2977 N.pl3     1 <0>        -0.7175
     12 C9         -1.5151   -1.9460    2.2862 C.ar      1 <0>         0.2249
     13 C10        -1.0615   -0.9573    3.1461 C.ar      1 <0>        -0.2018
     14 C11        -1.9008   -0.4508    4.1212 C.ar      1 <0>        -0.0190
     15 C12        -3.1930   -0.9272    4.2423 C.ar      1 <0>        -0.6853
     16 C13        -3.6536   -1.9130    3.3891 C.ar      1 <0>        -0.0606
     17 C14        -2.8204   -2.4229    2.4050 C.ar      1 <0>         0.1304
     18 N2         -3.2863   -3.4174    1.5364 N.pl3     1 <0>        -0.8823
     19 S1         -4.2559   -0.2767    5.4880 S.o2      1 <0>         2.7030
     20 O2         -5.2363   -1.2725    5.7460 O.2       1 <0>        -0.9709
     21 O3         -3.4149    0.2464    6.5069 O.2       1 <0>        -0.9702
     22 N3         -5.0549    1.0135    4.8251 N.pl3     1 <0>        -1.2522
     23 H2          1.3130    1.5193   -0.7525 H         1 <0>         0.0549
     24 H3         -0.1985    1.4157   -1.6869 H         1 <0>         0.0552
     25 H4         -0.2518    1.7806    0.0545 H         1 <0>         0.0555
     26 H5          0.4394   -0.8713   -2.4650 H         1 <0>         0.0632
     27 H6          1.9508   -0.7676   -1.5307 H         1 <0>         0.0640
     28 H7         -0.2320   -2.8682   -1.1573 H         1 <0>         0.0583
     29 H8          1.3328   -3.1295   -1.9643 H         1 <0>         0.0675
     30 H9          1.4034   -3.9103    0.3881 H         1 <0>         0.0780
     31 H10         2.5138   -2.5423    0.1355 H         1 <0>         0.0779
     32 H11         1.8759   -0.2553    0.9136 H         1 <0>         0.0751
     33 H12         0.3111    0.0059    1.7206 H         1 <0>         0.0831
     34 H13         2.4410   -2.0379    2.5771 H         1 <0>         0.0537
     35 H14         0.8794   -1.7622    3.3855 H         1 <0>         0.0667
     36 H15         1.6930   -3.9777    3.7532 H         1 <0>         0.3802
     37 H16        -1.0109   -3.0855    0.6408 H         1 <0>         0.3967
     38 H17        -0.0525   -0.5832    3.0545 H         1 <0>         0.1453
     39 H18        -1.5459    0.3190    4.7903 H         1 <0>         0.1373
     40 H19        -4.6635   -2.2831    3.4867 H         1 <0>         0.1379
     41 H20        -2.7011   -3.7757    0.8508 H         1 <0>         0.3916
     42 H21        -4.1944   -3.7480    1.6202 H         1 <0>         0.4021
     43 H22        -4.8839    1.2692    3.9051 H         1 <0>         0.4160
     44 H23        -5.6939    1.5134    5.3567 H         1 <0>         0.4186
@<TRIPOS>BOND
     1    1    2 1
     2    1   23 1
     3    1   24 1
     4    1   25 1
     5    2    3 1
     6    2    8 1
     7    2    4 1
     8    4    5 1
     9    4   26 1
    10    4   27 1
    11    5    6 1
    12    5   28 1
    13    5   29 1
    14    6    7 1
    15    6   30 1
    16    6   31 1
    17    7    8 1
    18    7    9 1
    19    7   11 1
    20    8   32 1
    21    8   33 1
    22    9   10 1
    23    9   34 1
    24    9   35 1
    25   10   36 1
    26   11   12 1
    27   11   37 1
    28   12   17 ar
    29   12   13 ar
    30   13   14 ar
    31   13   38 1
    32   14   15 ar
    33   14   39 1
    34   15   16 ar
    35   15   19 1
    36   16   17 ar
    37   16   40 1
    38   17   18 1
    39   18   41 1
    40   18   42 1
    41   19   20 2
    42   19   21 2
    43   19   22 1
    44   22   43 1
    45   22   44 1
@<TRIPOS>MOLECULE
ZINC32821922
   42    43     0     0     0
SMALL
USER_CHARGES

@<TRIPOS>ATOM
      1 C1         -0.0167    1.3779    0.0096 C.ar      1 <0>        -0.0744
      2 C2          1.1696    2.0886    0.0021 C.ar      1 <0>        -0.1673
      3 C3          2.3802    1.4154   -0.0130 C.ar      1 <0>         0.1355
      4 C4          2.3990    0.0236   -0.0206 C.ar      1 <0>         0.0796
      5 C5          1.2071   -0.6822   -0.0130 C.ar      1 <0>        -0.1014
      6 C6          0.0021   -0.0041    0.0020 C.ar      1 <0>        -0.1415
      7 C7         -1.2936   -0.7736    0.0102 C.3       1 <0>        -0.0925
      8 C8         -1.7458   -1.0263   -1.4294 C.3       1 <0>        -0.0087
      9 N1         -3.0088   -1.7764   -1.4215 N.4       1 <0>        -0.6380
     10 O1          3.5850   -0.6417   -0.0359 O.3       1 <0>        -0.4868
     11 O2          3.5476    2.1129   -0.0209 O.3       1 <0>        -0.2839
     12 C9          3.4517    3.5386   -0.0128 C.3       1 <0>         0.2179
     13 H1          2.7606    3.8608   -0.7917 H         1 <0>         0.0648
     14 C10         4.8331    4.1448   -0.2733 C.3       1 <0>         0.1043
     15 H2          5.5346    3.7905    0.4821 H         1 <0>         0.0923
     16 C11         4.7336    5.6717   -0.2034 C.3       1 <0>         0.1280
     17 H3          4.0704    6.0303   -0.9906 H         1 <0>         0.0742
     18 C12         4.1707    6.0736    1.1634 C.3       1 <0>         0.0610
     19 H4          4.0445    7.1556    1.2014 H         1 <0>         0.0811
     20 C13         2.8148    5.3930    1.3683 C.3       1 <0>        -0.0033
     21 H5          2.1153    5.7396    0.6076 H         1 <0>         0.0633
     22 O3          2.9728    3.9768    1.2603 O.3       1 <0>        -0.3493
     23 C14         2.2815    5.7366    2.7353 C.2       1 <0>         0.5050
     24 O4          1.9888    6.8894    3.0034 O.co2     1 <0>        -0.6784
     25 O5          2.1428    4.8617    3.5731 O.co2     1 <0>        -0.6587
     26 O6          5.0735    5.6616    2.1916 O.3       1 <0>        -0.5472
     27 O7          6.0318    6.2438   -0.3746 O.3       1 <0>        -0.5414
     28 O8          5.2895    3.7536   -1.5697 O.3       1 <0>        -0.5507
     29 H6         -0.9598    1.9038    0.0259 H         1 <0>         0.1294
     30 H7          1.1522    3.1684    0.0077 H         1 <0>         0.1406
     31 H8          1.2190   -1.7621   -0.0189 H         1 <0>         0.1348
     32 H9         -1.1467   -1.7271    0.5175 H         1 <0>         0.0938
     33 H10        -2.0555   -0.1967    0.5344 H         1 <0>         0.0958
     34 H11        -1.8927   -0.0728   -1.9368 H         1 <0>         0.1354
     35 H12        -0.9839   -1.6032   -1.9536 H         1 <0>         0.1350
     36 H13        -3.3071   -1.9430   -2.3709 H         1 <0>         0.4367
     37 H14        -2.8729   -2.6590   -0.9518 H         1 <0>         0.4342
     38 H15         3.9367   -0.8389    0.8430 H         1 <0>         0.3942
     39 H16         4.7797    5.8845    3.0855 H         1 <0>         0.3878
     40 H17         6.0433    7.2101   -0.3414 H         1 <0>         0.3814
     41 H18         5.3717    2.7971   -1.6857 H         1 <0>         0.3822
     42 H19        -3.7141   -1.2424   -0.9362 H         1 <0>         0.4350
@<TRIPOS>BOND
     1    1    6 ar
     2    1    2 ar
     3    1   29 1
     4    2    3 ar
     5    2   30 1
     6    3    4 ar
     7    3   11 1
     8    4    5 ar
     9    4   10 1
    10    5    6 ar
    11    5   31 1
    12    6    7 1
    13    7    8 1
    14    7   32 1
    15    7   33 1
    16    8    9 1
    17    8   34 1
    18    8   35 1
    19    9   36 1
    20    9   37 1
    21    9   42 1
    22   10   38 1
    23   11   12 1
    24   12   13 1
    25   12   22 1
    26   12   14 1
    27   14   15 1
    28   14   16 1
    29   14   28 1
    30   16   17 1
    31   16   18 1
    32   16   27 1
    33   18   19 1
    34   18   20 1
    35   18   26 1
    36   20   21 1
    37   20   22 1
    38   20   23 1
    39   23   24 2
    40   23   25 1
    41   26   39 1
    42   27   40 1
    43   28   41 1
@<TRIPOS>MOLECULE
ZINC20763345
   60    63     0     0     0
SMALL
USER_CHARGES
4-bromo-2-[(2R,4R)-2-(3,4-dimethoxyphenyl)-6-(4-ethylphenyl)-2,3,4,5-tetrahydropyrimidin-4-yl]phenol
@<TRIPOS>ATOM
      1 C1          0.7212    8.9114   -4.7220 C.3       1 <0>        -0.1502
      2 C2         -0.6373    8.8837   -4.0189 C.3       1 <0>        -0.0986
      3 C3         -0.8800    7.5099   -3.4488 C.ar      1 <0>        -0.0376
      4 C4         -0.4663    7.2156   -2.1617 C.ar      1 <0>        -0.1269
      5 C5         -0.6856    5.9603   -1.6334 C.ar      1 <0>        -0.0555
      6 C6         -1.3267    4.9857   -2.4008 C.ar      1 <0>        -0.1046
      7 C7         -1.7364    5.2878   -3.7010 C.ar      1 <0>        -0.0781
      8 C8         -1.5158    6.5490   -4.2147 C.ar      1 <0>        -0.1235
      9 C9         -1.5649    3.6402   -1.8422 C.2       1 <0>         0.2737
     10 N1         -1.1715    3.3967   -0.6500 N.2       1 <0>        -0.5274
     11 C10        -1.3328    2.1123    0.0198 C.3       1 <0>         0.2695
     12 H1         -1.6820    2.3115    1.0437 H         1 <0>         0.1707
     13 N2         -2.3463    1.2972   -0.6606 N.4       1 <0>        -0.5706
     14 C11        -2.0563    1.2249   -2.1030 C.3       1 <0>         0.1020
     15 H2         -1.0234    0.8708   -2.2361 H         1 <0>         0.1544
     16 C12        -2.2584    2.6203   -2.7019 C.3       1 <0>        -0.1499
     17 C13        -2.9954    0.2478   -2.7621 C.ar      1 <0>        -0.1773
     18 C14        -4.2245   -0.0219   -2.1917 C.ar      1 <0>        -0.0611
     19 C15        -5.0868   -0.9187   -2.7962 C.ar      1 <0>        -0.1236
     20 C16        -4.7206   -1.5475   -3.9731 C.ar      1 <0>        -0.0247
     21 C17        -3.4926   -1.2810   -4.5464 C.ar      1 <0>        -0.1923
     22 C18        -2.6287   -0.3771   -3.9449 C.ar      1 <0>         0.2113
     23 O1         -1.4225   -0.1086   -4.5109 O.3       1 <0>        -0.5044
     24 Br1        -6.7687   -1.2855   -2.0135 Br        1 <0>        -0.0209
     25 C19        -0.0167    1.3783    0.0096 C.ar      1 <0>        -0.1418
     26 C20         0.0021   -0.0041    0.0020 C.ar      1 <0>        -0.1179
     27 C21         1.2068   -0.6820   -0.0126 C.ar      1 <0>        -0.1636
     28 C22         2.3990    0.0241   -0.0202 C.ar      1 <0>         0.1308
     29 C23         2.3801    1.4155   -0.0130 C.ar      1 <0>         0.1133
     30 C24         1.1692    2.0888    0.0021 C.ar      1 <0>        -0.1287
     31 O2          3.5476    2.1129   -0.0200 O.3       1 <0>        -0.2962
     32 C25         3.4517    3.5386   -0.0119 C.3       1 <0>         0.0192
     33 O3          3.5850   -0.6413   -0.0351 O.3       1 <0>        -0.2958
     34 C26         3.5277   -2.0691   -0.0422 C.3       1 <0>         0.0175
     35 H3          0.8983    9.9141   -5.1381 H         1 <0>         0.0659
     36 H4          0.7284    8.1705   -5.5350 H         1 <0>         0.0575
     37 H5          1.5136    8.6695   -3.9984 H         1 <0>         0.0576
     38 H6         -0.6445    9.6246   -3.2059 H         1 <0>         0.0797
     39 H7         -1.4297    9.1256   -4.7425 H         1 <0>         0.0796
     40 H8          0.0297    7.9702   -1.5694 H         1 <0>         0.1319
     41 H9         -0.3619    5.7317   -0.6287 H         1 <0>         0.1364
     42 H10        -2.2288    4.5373   -4.3015 H         1 <0>         0.1285
     43 H11        -1.8358    6.7853   -5.2188 H         1 <0>         0.1326
     44 H12        -2.3413    0.2804   -0.2409 H         1 <0>         0.4508
     45 H13        -3.3337    2.8481   -2.7459 H         1 <0>         0.1244
     46 H14        -1.8358    2.6482   -3.7171 H         1 <0>         0.1408
     47 H15        -4.5121    0.4676   -1.2729 H         1 <0>         0.1313
     48 H16        -5.3953   -2.2474   -4.4436 H         1 <0>         0.1479
     49 H17        -3.2070   -1.7722   -5.4649 H         1 <0>         0.1506
     50 H18        -1.1325   -0.6046   -5.4489 H         1 <0>         0.4586
     51 H19        -0.9265   -0.5556    0.0079 H         1 <0>         0.1194
     52 H20         1.2187   -1.7619   -0.0178 H         1 <0>         0.1477
     53 H21         1.1518    3.1686    0.0077 H         1 <0>         0.1540
     54 H22         4.4618    3.9741   -0.0188 H         1 <0>         0.1117
     55 H23         2.9178    3.8650    0.8928 H         1 <0>         0.0610
     56 H24         2.9016    3.8741   -0.9034 H         1 <0>         0.0585
     57 H25         4.5492   -2.4770   -0.0541 H         1 <0>         0.1125
     58 H26         2.9863   -2.4099   -0.9371 H         1 <0>         0.0601
     59 H27         3.0035   -2.4195    0.8591 H         1 <0>         0.0619
     60 H28        -3.3386    1.7491   -0.5150 H         1 <0>         0.4480
@<TRIPOS>BOND
     1    1    2 1
     2    1   35 1
     3    1   36 1
     4    1   37 1
     5    2    3 1
     6    2   38 1
     7    2   39 1
     8    3    8 ar
     9    3    4 ar
    10    4    5 ar
    11    4   40 1
    12    5    6 ar
    13    5   41 1
    14    6    7 ar
    15    6    9 1
    16    7    8 ar
    17    7   42 1
    18    8   43 1
    19    9   16 1
    20    9   10 2
    21   10   11 1
    22   11   12 1
    23   11   13 1
    24   11   25 1
    25   13   14 1
    26   13   44 1
    27   13   60 1
    28   14   15 1
    29   14   16 1
    30   14   17 1
    31   16   45 1
    32   16   46 1
    33   17   22 ar
    34   17   18 ar
    35   18   19 ar
    36   18   47 1
    37   19   20 ar
    38   19   24 1
    39   20   21 ar
    40   20   48 1
    41   21   22 ar
    42   21   49 1
    43   22   23 1
    44   23   50 1
    45   25   30 ar
    46   25   26 ar
    47   26   27 ar
    48   26   51 1
    49   27   28 ar
    50   27   52 1
    51   28   29 ar
    52   28   33 1
    53   29   30 ar
    54   29   31 1
    55   30   53 1
    56   31   32 1
    57   32   54 1
    58   32   55 1
    59   32   56 1
    60   33   34 1
    61   34   57 1
    62   34   58 1
    63   34   59 1
@<TRIPOS>MOLECULE
ZINC36013981
   78    80     0     0     0
SMALL
USER_CHARGES

@<TRIPOS>ATOM
      1 C1         -0.5752    1.8917    0.4541 C.3       1 <0>        -0.1789
      2 C2         -0.2678    0.4294    0.1254 C.3       1 <0>         0.0837
      3 N1         -1.5049   -0.3535    0.1787 N.am      1 <0>        -0.5347
      4 C3         -1.8628   -0.9127    1.3720 C.2       1 <0>         0.1961
      5 C4         -2.9911   -1.6458    1.4877 C.2       1 <0>        -0.2227
      6 C5         -3.8454   -1.8256    0.2493 C.3       1 <0>         0.2337
      7 H1         -3.9380   -2.8945    0.0573 H         1 <0>         0.1048
      8 N2         -3.3715   -1.1816   -0.9874 N.am      1 <0>        -0.7048
      9 C6         -2.2240   -0.4761   -0.9441 C.2       1 <0>         0.7021
     10 O1         -1.8264    0.0625   -1.9587 O.2       1 <0>        -0.5327
     11 C7         -5.2215   -1.2913    0.5525 C.ar      1 <0>        -0.1353
     12 C8         -5.4628    0.0686    0.4963 C.ar      1 <0>        -0.0913
     13 C9         -6.7251    0.5587    0.7744 C.ar      1 <0>        -0.1232
     14 C10        -7.7461   -0.3112    1.1085 C.ar      1 <0>        -0.0639
     15 C11        -7.5050   -1.6712    1.1639 C.ar      1 <0>        -0.1221
     16 C12        -6.2438   -2.1617    0.8815 C.ar      1 <0>        -0.0745
     17 C13        -9.1220    0.2232    1.4127 C.3       1 <0>        -0.1240
     18 C14        -3.3625   -2.2263    2.7230 C.2       1 <0>         0.5415
     19 O2         -2.7092   -1.9975    3.7237 O.2       1 <0>        -0.5411
     20 O3         -4.4414   -3.0340    2.7917 O.3       1 <0>        -0.3226
     21 C15        -4.7584   -3.5857    4.0712 C.3       1 <0>         0.0618
     22 C16        -6.0029   -4.4678    3.9521 C.3       1 <0>        -0.1580
     23 C17        -0.9841   -0.7090    2.5793 C.3       1 <0>        -0.0013
     24 N3         -0.1561   -1.9040    2.7896 N.4       1 <0>        -0.3523
     25 C18         0.4886   -1.7940    4.0962 C.3       1 <0>        -0.0013
     26 C19         0.7222   -3.1798    4.6559 C.3       1 <0>        -0.1539
     27 C20         2.1380   -3.6526    4.2790 C.3       1 <0>         0.1154
     28 N4          2.4803   -3.2561    2.8981 N.am      1 <0>        -0.6387
     29 C21         1.5315   -3.3477    1.8076 C.3       1 <0>         0.0967
     30 C22         0.7303   -2.0300    1.6970 C.3       1 <0>        -0.0702
     31 C23         3.7198   -2.7921    2.6437 C.2       1 <0>         0.7007
     32 O4          4.5611   -2.7925    3.5215 O.2       1 <0>        -0.5537
     33 N5          4.0267   -2.3276    1.4163 N.am      1 <0>        -0.7361
     34 C24         5.4014   -1.9261    1.1077 C.3       1 <0>         0.1836
     35 C25         6.3363   -3.1228    1.2945 C.3       1 <0>        -0.1664
     36 C26         5.4778   -1.4405   -0.3412 C.3       1 <0>        -0.1583
     37 C27         5.8258   -0.7958    2.0474 C.3       1 <0>        -0.1660
     38 H2          0.3452    2.4742    0.4144 H         1 <0>         0.0886
     39 H3         -1.2861    2.2857   -0.2722 H         1 <0>         0.0775
     40 H4         -1.0037    1.9570    1.4542 H         1 <0>         0.0604
     41 H5          0.1607    0.3641   -0.8747 H         1 <0>         0.1216
     42 H6          0.4431    0.0354    0.8517 H         1 <0>         0.0815
     43 H7         -3.8750   -1.2606   -1.8127 H         1 <0>         0.4420
     44 H8         -4.6651    0.7483    0.2353 H         1 <0>         0.1111
     45 H9         -6.9134    1.6213    0.7312 H         1 <0>         0.1242
     46 H10        -8.3027   -2.3509    1.4252 H         1 <0>         0.1271
     47 H11        -6.0564   -3.2245    0.9211 H         1 <0>         0.1289
     48 H12        -9.7061    0.2672    0.4935 H         1 <0>         0.0769
     49 H13        -9.6174   -0.4345    2.1269 H         1 <0>         0.0707
     50 H14        -9.0375    1.2233    1.8377 H         1 <0>         0.0694
     51 H15        -3.9204   -4.1857    4.4259 H         1 <0>         0.0722
     52 H16        -4.9517   -2.7782    4.7773 H         1 <0>         0.0752
     53 H17        -6.2447   -4.8886    4.9280 H         1 <0>         0.0867
     54 H18        -6.8409   -3.8678    3.5974 H         1 <0>         0.0716
     55 H19        -5.8096   -5.2753    3.2459 H         1 <0>         0.0699
     56 H20        -0.3401    0.1555    2.4181 H         1 <0>         0.1471
     57 H21        -1.6070   -0.5393    3.4575 H         1 <0>         0.1925
     58 H22         1.4433   -1.2792    3.9888 H         1 <0>         0.1326
     59 H23        -0.1545   -1.2317    4.7732 H         1 <0>         0.1440
     60 H24         0.6244   -3.1546    5.7413 H         1 <0>         0.1299
     61 H25        -0.0136   -3.8684    4.2405 H         1 <0>         0.0875
     62 H26         2.8581   -3.2099    4.9672 H         1 <0>         0.1120
     63 H27         2.1864   -4.7384    4.3618 H         1 <0>         0.0859
     64 H28         2.0674   -3.5248    0.8751 H         1 <0>         0.1215
     65 H29         0.8455   -4.1743    1.9926 H         1 <0>         0.1067
     66 H30         0.1603   -2.0308    0.7679 H         1 <0>         0.1376
     67 H31         1.4210   -1.1868    1.6933 H         1 <0>         0.1362
     68 H32         3.3374   -2.2591    0.7373 H         1 <0>         0.3896
     69 H33         6.0340   -3.9280    0.6250 H         1 <0>         0.0550
     70 H34         7.3591   -2.8241    1.0648 H         1 <0>         0.0702
     71 H35         6.2819   -3.4687    2.3267 H         1 <0>         0.0764
     72 H36         4.8118   -0.5880   -0.4743 H         1 <0>         0.0615
     73 H37         6.5006   -1.1418   -0.5709 H         1 <0>         0.0820
     74 H38         5.1754   -2.2458   -1.0107 H         1 <0>         0.0634
     75 H39         5.7714   -1.1417    3.0796 H         1 <0>         0.0825
     76 H40         6.8486   -0.4971    1.8178 H         1 <0>         0.0685
     77 H41         5.1598    0.0567    1.9144 H         1 <0>         0.0511
     78 H42        -0.7618   -2.7109    2.8029 H         1 <0>         0.4189
@<TRIPOS>BOND
     1    1    2 1
     2    1   38 1
     3    1   39 1
     4    1   40 1
     5    2    3 1
     6    2   41 1
     7    2   42 1
     8    3    9 am
     9    3    4 1
    10    4    5 2
    11    4   23 1
    12    5    6 1
    13    5   18 1
    14    6    7 1
    15    6    8 1
    16    6   11 1
    17    8    9 am
    18    8   43 1
    19    9   10 2
    20   11   16 ar
    21   11   12 ar
    22   12   13 ar
    23   12   44 1
    24   13   14 ar
    25   13   45 1
    26   14   15 ar
    27   14   17 1
    28   15   16 ar
    29   15   46 1
    30   16   47 1
    31   17   48 1
    32   17   49 1
    33   17   50 1
    34   18   19 2
    35   18   20 1
    36   20   21 1
    37   21   22 1
    38   21   51 1
    39   21   52 1
    40   22   53 1
    41   22   54 1
    42   22   55 1
    43   23   24 1
    44   23   56 1
    45   23   57 1
    46   24   30 1
    47   24   25 1
    48   24   78 1
    49   25   26 1
    50   25   58 1
    51   25   59 1
    52   26   27 1
    53   26   60 1
    54   26   61 1
    55   27   28 1
    56   27   62 1
    57   27   63 1
    58   28   29 1
    59   28   31 am
    60   29   30 1
    61   29   64 1
    62   29   65 1
    63   30   66 1
    64   30   67 1
    65   31   32 2
    66   31   33 am
    67   33   34 1
    68   33   68 1
    69   34   35 1
    70   34   36 1
    71   34   37 1
    72   35   69 1
    73   35   70 1
    74   35   71 1
    75   36   72 1
    76   36   73 1
    77   36   74 1
    78   37   75 1
    79   37   76 1
    80   37   77 1
@<TRIPOS>MOLECULE
ZINC39466506
   68    73     0     0     0
SMALL
USER_CHARGES

@<TRIPOS>ATOM
      1 C1         -0.0167    1.3781    0.0096 C.ar      1 <0>        -0.1160
      2 C2          1.1709    2.0855    0.0021 C.ar      1 <0>        -0.1141
      3 C3          2.3773    1.4107   -0.0130 C.ar      1 <0>        -0.1113
      4 C4          2.3960    0.0285   -0.0201 C.ar      1 <0>        -0.0850
      5 C5          1.2084   -0.6789   -0.0117 C.ar      1 <0>        -0.1155
      6 C6          0.0021   -0.0041    0.0020 C.ar      1 <0>        -0.1192
      7 C7          3.7112   -0.7071   -0.0376 C.3       1 <0>        -0.0481
      8 C8          4.1644   -0.9594    1.3773 C.2       1 <0>        -0.0298
      9 C9          3.8928   -2.1204    1.9697 C.2       1 <0>        -0.1685
     10 C10         4.3686   -2.3472    3.3775 C.3       1 <0>        -0.0690
     11 H1          3.6769   -1.8737    4.0743 H         1 <0>         0.1114
     12 C11         4.4778   -3.8320    3.7026 C.3       1 <0>        -0.0084
     13 N1          4.9017   -4.0063    5.1030 N.4       1 <0>        -0.1474
     14 C12         6.2041   -3.3879    5.3484 C.3       1 <0>        -0.0525
     15 H2          6.9591   -3.8882    4.7420 H         1 <0>         0.1621
     16 C13         6.1824   -1.8935    4.9969 C.3       1 <0>        -0.1250
     17 C14         5.7615   -1.7251    3.5401 C.3       1 <0>        -0.0619
     18 H3          6.4687   -2.2418    2.8913 H         1 <0>         0.1046
     19 C15         5.6923   -0.2727    3.1548 C.2       1 <0>        -0.1453
     20 C16         4.9189    0.0796    2.1127 C.2       1 <0>        -0.0140
     21 C17         4.8194    1.5027    1.7073 C.ar      1 <0>        -0.0853
     22 C18         5.4725    1.9511    0.5611 C.ar      1 <0>        -0.0939
     23 C19         5.3765    3.2762    0.1879 C.ar      1 <0>        -0.1260
     24 C20         4.6337    4.1624    0.9483 C.ar      1 <0>        -0.0932
     25 C21         3.9823    3.7284    2.0871 C.ar      1 <0>        -0.1419
     26 C22         4.0650    2.3992    2.4703 C.ar      1 <0>         0.1281
     27 O1          3.4206    1.9702    3.5864 O.3       1 <0>        -0.4896
     28 C23         6.6005   -3.4822    6.8275 C.3       1 <0>         0.0782
     29 O2          6.7141   -4.8671    7.2030 O.3       1 <0>        -0.6900
     30 P1          5.4781   -5.8569    6.8291 P.3       1 <0>         2.4232
     31 O3          4.3902   -5.7170    7.8227 O.2       1 <0>        -0.9595
     32 N2          4.9662   -5.3663    5.3208 N.pl3     1 <0>        -1.0224
     33 C24         6.0515   -7.5861    6.7611 C.3       1 <0>        -0.6783
     34 C25         6.6112   -7.9828    8.1029 C.ar      1 <0>        -0.1086
     35 C26         7.9516   -7.7863    8.3782 C.ar      1 <0>        -0.1131
     36 C27         8.4650   -8.1502    9.6090 C.ar      1 <0>        -0.1147
     37 C28         7.6379   -8.7101   10.5647 C.ar      1 <0>        -0.1027
     38 C29         6.2974   -8.9058   10.2898 C.ar      1 <0>        -0.1120
     39 C30         5.7831   -8.5379    9.0605 C.ar      1 <0>        -0.0970
     40 H4         -0.9591    1.9053    0.0259 H         1 <0>         0.1222
     41 H5          1.1563    3.1654    0.0076 H         1 <0>         0.1197
     42 H6          3.3051    1.9634   -0.0196 H         1 <0>         0.1277
     43 H7          1.2231   -1.7588   -0.0176 H         1 <0>         0.1164
     44 H8         -0.9258   -0.5567    0.0082 H         1 <0>         0.1219
     45 H9          3.5884   -1.6586   -0.5549 H         1 <0>         0.0856
     46 H10         4.4573   -0.1052   -0.5563 H         1 <0>         0.0868
     47 H11         3.3398   -2.8869    1.4471 H         1 <0>         0.1350
     48 H12         3.5081   -4.3074    3.5557 H         1 <0>         0.1489
     49 H13         5.2110   -4.2946    3.0418 H         1 <0>         0.1427
     50 H14         5.4741   -1.3779    5.6454 H         1 <0>         0.1074
     51 H15         7.1778   -1.4724    5.1384 H         1 <0>         0.1335
     52 H16         6.2546    0.4701    3.7011 H         1 <0>         0.1342
     53 H17         6.0536    1.2626   -0.0344 H         1 <0>         0.1285
     54 H18         5.8830    3.6229   -0.7007 H         1 <0>         0.1320
     55 H19         4.5632    5.1982    0.6505 H         1 <0>         0.1323
     56 H20         3.4045    4.4249    2.6766 H         1 <0>         0.1333
     57 H21         3.9481    2.0343    4.3944 H         1 <0>         0.3859
     58 H22         7.5580   -2.9842    6.9799 H         1 <0>         0.1607
     59 H23         5.8381   -3.0007    7.4398 H         1 <0>         0.1095
     60 H24         4.7099   -5.9983    4.6311 H         1 <0>         0.4552
     61 H25         5.2141   -8.2370    6.5099 H         1 <0>         0.1332
     62 H26         6.8270   -7.6821    6.0012 H         1 <0>         0.1148
     63 H27         8.5977   -7.3488    7.6315 H         1 <0>         0.1225
     64 H28         9.5123   -7.9973    9.8238 H         1 <0>         0.1318
     65 H29         8.0392   -8.9951   11.5261 H         1 <0>         0.1326
     66 H30         5.6513   -9.3435   11.0363 H         1 <0>         0.1341
     67 H31         4.7350   -8.6873    8.8470 H         1 <0>         0.1301
     68 H32         4.2123   -3.5990    5.7169 H         1 <0>         0.4327
@<TRIPOS>BOND
     1    1    6 ar
     2    1    2 ar
     3    1   40 1
     4    2    3 ar
     5    2   41 1
     6    3    4 ar
     7    3   42 1
     8    4    5 ar
     9    4    7 1
    10    5    6 ar
    11    5   43 1
    12    6   44 1
    13    7    8 1
    14    7   45 1
    15    7   46 1
    16    8   20 1
    17    8    9 2
    18    9   10 1
    19    9   47 1
    20   10   11 1
    21   10   17 1
    22   10   12 1
    23   12   13 1
    24   12   48 1
    25   12   49 1
    26   13   32 1
    27   13   14 1
    28   13   68 1
    29   14   15 1
    30   14   16 1
    31   14   28 1
    32   16   17 1
    33   16   50 1
    34   16   51 1
    35   17   18 1
    36   17   19 1
    37   19   20 2
    38   19   52 1
    39   20   21 1
    40   21   26 ar
    41   21   22 ar
    42   22   23 ar
    43   22   53 1
    44   23   24 ar
    45   23   54 1
    46   24   25 ar
    47   24   55 1
    48   25   26 ar
    49   25   56 1
    50   26   27 1
    51   27   57 1
    52   28   29 1
    53   28   58 1
    54   28   59 1
    55   29   30 1
    56   30   31 2
    57   30   32 1
    58   30   33 1
    59   32   60 1
    60   33   34 1
    61   33   61 1
    62   33   62 1
    63   34   39 ar
    64   34   35 ar
    65   35   36 ar
    66   35   63 1
    67   36   37 ar
    68   36   64 1
    69   37   38 ar
    70   37   65 1
    71   38   39 ar
    72   38   66 1
    73   39   67 1
@<TRIPOS>MOLECULE
ZINC59170636
   57    60     0     0     0
SMALL
USER_CHARGES

@<TRIPOS>ATOM
      1 C1         -0.0122    1.3165   -0.8880 C.3       1 <0>        -0.1482
      2 C2         -1.1017    2.1819   -1.5243 C.3       1 <0>        -0.0912
      3 C3         -2.3768    1.3860   -1.6314 C.ar      1 <0>        -0.0764
      4 C4         -2.6277    0.6341   -2.7646 C.ar      1 <0>        -0.0965
      5 C5         -3.7955   -0.0961   -2.8661 C.ar      1 <0>        -0.1297
      6 C6         -4.7183   -0.0751   -1.8282 C.ar      1 <0>         0.1130
      7 C7         -4.4631    0.6808   -0.6912 C.ar      1 <0>        -0.1208
      8 C8         -3.2909    1.4046   -0.5939 C.ar      1 <0>        -0.1001
      9 N1         -5.9019   -0.8129   -1.9280 N.am      1 <0>        -0.6396
     10 C9         -6.5153   -1.2568   -0.8130 C.2       1 <0>         0.5714
     11 O1         -6.1141   -0.9089    0.2814 O.2       1 <0>        -0.5108
     12 C10        -7.6710   -2.1627   -0.9196 C.2       1 <0>        -0.2488
     13 C11        -8.2586   -2.4340   -2.1321 C.2       1 <0>         0.1312
     14 C12        -9.4056   -3.3500   -2.1423 C.ar      1 <0>        -0.1562
     15 C13        -9.8834   -3.8816   -3.3442 C.ar      1 <0>        -0.0218
     16 C14       -10.9609   -4.7426   -3.3285 C.ar      1 <0>        -0.0435
     17 C15       -11.5695   -5.0813   -2.1290 C.ar      1 <0>        -0.0245
     18 C16       -11.1070   -4.5618   -0.9347 C.ar      1 <0>        -0.0953
     19 C17       -10.0272   -3.6946   -0.9293 C.ar      1 <0>         0.1239
     20 O2         -9.5670   -3.1718    0.2364 O.3       1 <0>        -0.2106
     21 C18        -8.2452   -2.8248    0.2747 C.2       1 <0>         0.5228
     22 N2         -7.5147   -3.0642    1.3268 N.pl3     1 <0>        -0.2970
     23 N3         -8.1167   -3.5082    2.5114 N.pl3     1 <0>        -0.9131
     24 S1         -7.2111   -3.6779    3.8874 S.o2      1 <0>         2.6611
     25 O3         -8.1289   -3.8340    4.9609 O.2       1 <0>        -0.8900
     26 O4         -6.2076   -4.6411    3.5969 O.2       1 <0>        -0.9105
     27 C19        -6.3785   -2.1482    4.1550 C.ar      1 <0>        -0.6987
     28 C20        -5.1429   -1.9236    3.5775 C.ar      1 <0>        -0.0195
     29 C21        -4.4897   -0.7235    3.7874 C.ar      1 <0>        -0.1254
     30 C22        -5.0724    0.2521    4.5745 C.ar      1 <0>        -0.0041
     31 C23        -6.3085    0.0278    5.1513 C.ar      1 <0>        -0.1354
     32 C24        -6.9636   -1.1706    4.9378 C.ar      1 <0>        -0.0055
     33 C25        -4.3598    1.5600    4.8042 C.3       1 <0>        -0.1336
     34 Cl1       -11.5588   -5.4051   -4.8175 Cl        1 <0>        -0.0131
     35 H1          0.9101    1.8922   -0.8105 H         1 <0>         0.0628
     36 H2         -0.3305    1.0048    0.1068 H         1 <0>         0.0551
     37 H3          0.1601    0.4359   -1.5069 H         1 <0>         0.0565
     38 H4         -1.2739    3.0625   -0.9054 H         1 <0>         0.0753
     39 H5         -0.7833    2.4936   -2.5191 H         1 <0>         0.0764
     40 H6         -1.9097    0.6182   -3.5712 H         1 <0>         0.1324
     41 H7         -3.9911   -0.6826   -3.7516 H         1 <0>         0.1296
     42 H8         -5.1788    0.6995    0.1174 H         1 <0>         0.1521
     43 H9         -3.0898    1.9890    0.2918 H         1 <0>         0.1287
     44 H10        -6.2815   -1.0053   -2.7997 H         1 <0>         0.4139
     45 H11        -7.8900   -1.9889   -3.0444 H         1 <0>         0.1912
     46 H12        -9.4111   -3.6198   -4.2795 H         1 <0>         0.1704
     47 H13       -12.4122   -5.7567   -2.1283 H         1 <0>         0.1719
     48 H14       -11.5873   -4.8322   -0.0059 H         1 <0>         0.1714
     49 H15        -9.0641   -3.7163    2.5255 H         1 <0>         0.4564
     50 H16        -4.6876   -2.6858    2.9625 H         1 <0>         0.1379
     51 H17        -3.5239   -0.5483    3.3368 H         1 <0>         0.1406
     52 H18        -6.7636    0.7899    5.7665 H         1 <0>         0.1417
     53 H19        -7.9310   -1.3444    5.3854 H         1 <0>         0.1461
     54 H20        -4.6468    2.2710    4.0295 H         1 <0>         0.0862
     55 H21        -4.6348    1.9568    5.7814 H         1 <0>         0.0796
     56 H22        -3.2825    1.3981    4.7678 H         1 <0>         0.0794
     57 H23        -6.5540   -2.9350    1.2899 H         1 <0>         0.4813
@<TRIPOS>BOND
     1    1    2 1
     2    1   35 1
     3    1   36 1
     4    1   37 1
     5    2    3 1
     6    2   38 1
     7    2   39 1
     8    3    8 ar
     9    3    4 ar
    10    4    5 ar
    11    4   40 1
    12    5    6 ar
    13    5   41 1
    14    6    7 ar
    15    6    9 1
    16    7    8 ar
    17    7   42 1
    18    8   43 1
    19    9   10 am
    20    9   44 1
    21   10   11 2
    22   10   12 1
    23   12   21 1
    24   12   13 2
    25   13   14 1
    26   13   45 1
    27   14   19 ar
    28   14   15 ar
    29   15   16 ar
    30   15   46 1
    31   16   17 ar
    32   16   34 1
    33   17   18 ar
    34   17   47 1
    35   18   19 ar
    36   18   48 1
    37   19   20 1
    38   20   21 1
    39   21   22 2
    40   22   23 1
    41   22   57 1
    42   23   24 1
    43   23   49 1
    44   24   25 2
    45   24   26 2
    46   24   27 1
    47   27   32 ar
    48   27   28 ar
    49   28   29 ar
    50   28   50 1
    51   29   30 ar
    52   29   51 1
    53   30   31 ar
    54   30   33 1
    55   31   32 ar
    56   31   52 1
    57   32   53 1
    58   33   54 1
    59   33   55 1
    60   33   56 1
@<TRIPOS>MOLECULE
ZINC64169868
   73    78     0     0     0
SMALL
USER_CHARGES

@<TRIPOS>ATOM
      1 C1         -0.0173    1.4248    0.0099 C.3       1 <0>         0.0205
      2 O1          0.0021   -0.0041    0.0020 O.3       1 <0>        -0.3011
      3 C2          0.6062   -0.6075   -1.0564 C.ar      1 <0>         0.1264
      4 C3          1.1729    0.1590   -2.0621 C.ar      1 <0>        -0.1835
      5 C4          1.7870   -0.4560   -3.1371 C.ar      1 <0>        -0.0697
      6 C5          1.8372   -1.8356   -3.2121 C.ar      1 <0>        -0.1527
      7 C6          1.2734   -2.6062   -2.2124 C.ar      1 <0>        -0.0824
      8 C7          0.6617   -1.9961   -1.1290 C.ar      1 <0>         0.0829
      9 O2          0.1119   -2.7526   -0.1417 O.3       1 <0>        -0.3246
     10 C8         -1.2589   -3.1251   -0.2969 C.3       1 <0>         0.0290
     11 C9          1.3295   -4.1097   -2.2977 C.3       1 <0>        -0.0169
     12 H1          0.8370   -4.5417   -1.4265 H         1 <0>         0.1320
     13 C10         0.6173   -4.5753   -3.5693 C.3       1 <0>         0.1262
     14 N1          0.5671   -6.0393   -3.5927 N.am      1 <0>        -0.7466
     15 C11        -0.0181   -6.6770   -4.6258 C.2       1 <0>         0.5176
     16 O3         -0.5032   -6.0390   -5.5361 O.2       1 <0>        -0.5086
     17 C12        -0.0698   -8.1829   -4.6499 C.3       1 <0>        -0.1329
     18 C13        -0.7820   -8.6485   -5.9215 C.3       1 <0>        -0.0321
     19 C14        -2.2058   -8.0890   -5.9426 C.3       1 <0>        -0.1151
     20 C15        -2.9180   -8.5545   -7.2142 C.3       1 <0>        -0.0815
     21 H2         -3.9324   -8.1559   -7.2291 H         1 <0>         0.0733
     22 C16        -2.1539   -8.0508   -8.4402 C.3       1 <0>        -0.1093
     23 C17        -0.7300   -8.6103   -8.4192 C.3       1 <0>        -0.0812
     24 H3         -0.1857   -8.2514   -9.2926 H         1 <0>         0.0720
     25 C18        -0.0179   -8.1447   -7.1476 C.3       1 <0>        -0.1135
     26 C19        -0.7825  -10.1392   -8.4436 C.3       1 <0>        -0.1396
     27 C20        -1.5466  -10.6430   -7.2176 C.3       1 <0>         0.1379
     28 C21        -2.9705  -10.0834   -7.2386 C.3       1 <0>        -0.1400
     29 C22        -0.8344  -10.1774   -5.9460 C.3       1 <0>        -0.0922
     30 O4         -1.5956  -12.0710   -7.2404 O.3       1 <0>        -0.5626
     31 C23         2.7680   -4.5574   -2.3350 C.2       1 <0>         0.0756
     32 C24         3.3895   -5.3713   -1.4514 C.ar      1 <0>        -0.1650
     33 C25         2.9303   -6.0560   -0.2370 C.ar      1 <0>        -0.0110
     34 C26         3.8049   -6.8206    0.4555 C.ar      1 <0>        -0.1498
     35 C27         5.1358   -6.9748    0.0437 C.ar      1 <0>         0.0559
     36 C28         5.6313   -6.3776   -1.0608 C.ar      1 <0>        -0.2099
     37 C29         4.7995   -5.5507   -1.8652 C.ar      1 <0>         0.3297
     38 N2          5.0403   -4.8741   -2.9620 N.pl3     1 <0>        -0.5830
     39 C30         3.8071   -4.1930   -3.3717 C.3       1 <0>         0.0541
     40 H4          1.0053    1.8021    0.0021 H         1 <0>         0.0610
     41 H5         -0.5445    1.7859   -0.8732 H         1 <0>         0.0615
     42 H6         -0.5275    1.7763    0.9067 H         1 <0>         0.1098
     43 H7          1.1344    1.2368   -2.0063 H         1 <0>         0.1427
     44 H8          2.2283    0.1425   -3.9203 H         1 <0>         0.1391
     45 H9          2.3175   -2.3124   -4.0537 H         1 <0>         0.1286
     46 H10        -1.8749   -2.2277   -0.3557 H         1 <0>         0.0552
     47 H11        -1.3761   -3.7067   -1.2113 H         1 <0>         0.0462
     48 H12        -1.5715   -3.7249    0.5578 H         1 <0>         0.1020
     49 H13        -0.3971   -4.1767   -3.5843 H         1 <0>         0.0969
     50 H14         1.1617   -4.2164   -4.4428 H         1 <0>         0.0823
     51 H15         0.9550   -6.5496   -2.8647 H         1 <0>         0.3984
     52 H16         0.9446   -8.5816   -4.6349 H         1 <0>         0.0944
     53 H17        -0.6142   -8.5418   -3.7765 H         1 <0>         0.0990
     54 H18        -2.7502   -8.4479   -5.0691 H         1 <0>         0.0561
     55 H19        -2.1685   -6.9997   -5.9251 H         1 <0>         0.0919
     56 H20        -2.6613   -8.3825   -9.3461 H         1 <0>         0.0616
     57 H21        -2.1165   -6.9615   -8.4228 H         1 <0>         0.0672
     58 H22         0.0195   -7.0555   -7.1301 H         1 <0>         0.0911
     59 H23         0.9965   -8.5434   -7.1326 H         1 <0>         0.0528
     60 H24        -1.2899  -10.4709   -9.3495 H         1 <0>         0.0654
     61 H25         0.2319  -10.5379   -8.4286 H         1 <0>         0.0682
     62 H26        -3.5148  -10.4423   -6.3652 H         1 <0>         0.0697
     63 H27        -3.4778  -10.4151   -8.1445 H         1 <0>         0.0653
     64 H28         0.1799  -10.5761   -5.9310 H         1 <0>         0.0681
     65 H29        -1.3788  -10.5363   -5.0725 H         1 <0>         0.0700
     66 H30        -2.0345  -12.4370   -8.0205 H         1 <0>         0.3789
     67 H31         1.9092   -5.9505    0.0988 H         1 <0>         0.1617
     68 H32         3.4691   -7.3253    1.3493 H         1 <0>         0.1589
     69 H33         5.7919   -7.5966    0.6347 H         1 <0>         0.1613
     70 H34         6.6649   -6.5283   -1.3350 H         1 <0>         0.1609
     71 H35         3.4932   -4.5398   -4.3563 H         1 <0>         0.1737
     72 H36         3.9627   -3.1143   -3.3847 H         1 <0>         0.1755
     73 H37         5.8905   -4.8338   -3.4270 H         1 <0>         0.4561
@<TRIPOS>BOND
     1    1    2 1
     2    1   40 1
     3    1   41 1
     4    1   42 1
     5    2    3 1
     6    3    8 ar
     7    3    4 ar
     8    4    5 ar
     9    4   43 1
    10    5    6 ar
    11    5   44 1
    12    6    7 ar
    13    6   45 1
    14    7    8 ar
    15    7   11 1
    16    8    9 1
    17    9   10 1
    18   10   46 1
    19   10   47 1
    20   10   48 1
    21   11   12 1
    22   11   13 1
    23   11   31 1
    24   13   14 1
    25   13   49 1
    26   13   50 1
    27   14   15 am
    28   14   51 1
    29   15   16 2
    30   15   17 1
    31   17   18 1
    32   17   52 1
    33   17   53 1
    34   18   25 1
    35   18   29 1
    36   18   19 1
    37   19   20 1
    38   19   54 1
    39   19   55 1
    40   20   21 1
    41   20   28 1
    42   20   22 1
    43   22   23 1
    44   22   56 1
    45   22   57 1
    46   23   24 1
    47   23   25 1
    48   23   26 1
    49   25   58 1
    50   25   59 1
    51   26   27 1
    52   26   60 1
    53   26   61 1
    54   27   28 1
    55   27   29 1
    56   27   30 1
    57   28   62 1
    58   28   63 1
    59   29   64 1
    60   29   65 1
    61   30   66 1
    62   31   39 1
    63   31   32 2
    64   32   37 ar
    65   32   33 ar
    66   33   34 ar
    67   33   67 1
    68   34   35 ar
    69   34   68 1
    70   35   36 ar
    71   35   69 1
    72   36   37 ar
    73   36   70 1
    74   37   38 2
    75   38   39 1
    76   38   73 1
    77   39   71 1
    78   39   72 1
@<TRIPOS>MOLECULE
ZINC02377007
   44    46     0     0     0
SMALL
USER_CHARGES
2-[[4-amino-5-(p-tolyl)-1,2,4-triazol-3-yl]sulfanyl]-N-(2,6-dibromo-4-methyl-phenyl)-acetamide
@<TRIPOS>ATOM
      1 C1         16.2744   -2.6464   -2.3978 C.3       1 <0>        -0.1209
      2 C2         14.8101   -2.3991   -2.1412 C.ar      1 <0>        -0.0670
      3 C3         14.3226   -1.1043   -2.1256 C.ar      1 <0>        -0.1118
      4 C4         12.9833   -0.8710   -1.8914 C.ar      1 <0>        -0.1160
      5 C5         12.1194   -1.9447   -1.6699 C.ar      1 <0>        -0.0273
      6 C6         12.6186   -3.2481   -1.6813 C.ar      1 <0>        -0.0663
      7 C7         13.9592   -3.4678   -1.9220 C.ar      1 <0>        -0.1133
      8 C8         10.6829   -1.7021   -1.4183 C.2       1 <0>         0.1958
      9 N1          9.8276   -2.5514   -0.8983 N.2       1 <0>        -0.2524
     10 N2          8.6653   -2.0093   -0.8173 N.2       1 <0>        -0.2882
     11 C9          8.7054   -0.7831   -1.2892 C.2       1 <0>         0.1729
     12 N3          9.9903   -0.5435   -1.6846 N.pl3     1 <0>        -0.3031
     13 N4         10.4850    0.6067   -2.2308 N.3       1 <0>        -0.5849
     14 S1          7.3545    0.3441   -1.3863 S.3       1 <0>         0.1233
     15 C10         6.0371   -0.6834   -0.6900 C.3       1 <0>        -0.1548
     16 C11         4.7478    0.0966   -0.6727 C.2       1 <0>         0.5157
     17 O1          4.7221    1.2351   -1.0900 O.2       1 <0>        -0.4700
     18 N5          3.6232   -0.4710   -0.1935 N.am      1 <0>        -0.6673
     19 C12         2.4098    0.2251   -0.2479 C.ar      1 <0>         0.1944
     20 C13         2.0447    0.8983   -1.4070 C.ar      1 <0>        -0.0886
     21 C14         0.8463    1.5848   -1.4571 C.ar      1 <0>        -0.0608
     22 C15         0.0112    1.6025   -0.3551 C.ar      1 <0>        -0.0825
     23 C16         0.3714    0.9335    0.8002 C.ar      1 <0>        -0.0613
     24 C17         1.5681    0.2446    0.8571 C.ar      1 <0>        -0.1049
     25 Br1         2.0594   -0.6704    2.4374 Br        1 <0>        -0.0277
     26 C18        -1.2916    2.3578   -0.4113 C.3       1 <0>        -0.1150
     27 Br2         3.1865    0.8759   -2.9142 Br        1 <0>         0.0007
     28 H1         16.8139   -2.6480   -1.4507 H         1 <0>         0.0764
     29 H2         16.3993   -3.6115   -2.8887 H         1 <0>         0.0716
     30 H3         16.6689   -1.8585   -3.0394 H         1 <0>         0.0704
     31 H4         14.9921   -0.2745   -2.2975 H         1 <0>         0.1320
     32 H5         12.6041    0.1401   -1.8791 H         1 <0>         0.1146
     33 H6         11.9562   -4.0829   -1.5062 H         1 <0>         0.1396
     34 H7         14.3460   -4.4761   -1.9355 H         1 <0>         0.1344
     35 H8         10.9080    1.1897   -1.5242 H         1 <0>         0.3693
     36 H9         11.1396    0.4031   -2.9711 H         1 <0>         0.3795
     37 H10         6.3008   -0.9721    0.3274 H         1 <0>         0.1306
     38 H11         5.9126   -1.5776   -1.3007 H         1 <0>         0.1299
     39 H12         3.6546   -1.3618    0.1891 H         1 <0>         0.4194
     40 H13         0.5619    2.1084   -2.3578 H         1 <0>         0.1438
     41 H14        -0.2832    0.9494    1.6590 H         1 <0>         0.1445
     42 H15        -2.0799    1.6963   -0.7706 H         1 <0>         0.0782
     43 H16        -1.5460    2.7181    0.5855 H         1 <0>         0.0736
     44 H17        -1.1914    3.2053   -1.0894 H         1 <0>         0.0737
@<TRIPOS>BOND
     1    1    2 1
     2    1   28 1
     3    1   29 1
     4    1   30 1
     5    2    7 ar
     6    2    3 ar
     7    3    4 ar
     8    3   31 1
     9    4    5 ar
    10    4   32 1
    11    5    6 ar
    12    5    8 1
    13    6    7 ar
    14    6   33 1
    15    7   34 1
    16    8   12 1
    17    8    9 2
    18    9   10 1
    19   10   11 2
    20   11   12 1
    21   11   14 1
    22   12   13 1
    23   13   35 1
    24   13   36 1
    25   14   15 1
    26   15   16 1
    27   15   37 1
    28   15   38 1
    29   16   17 2
    30   16   18 am
    31   18   19 1
    32   18   39 1
    33   19   24 ar
    34   19   20 ar
    35   20   21 ar
    36   20   27 1
    37   21   22 ar
    38   21   40 1
    39   22   23 ar
    40   22   26 1
    41   23   24 ar
    42   23   41 1
    43   24   25 1
    44   26   42 1
    45   26   43 1
    46   26   44 1
@<TRIPOS>MOLECULE
ZINC20701011
   56    60     0     0     0
SMALL
USER_CHARGES
(3aR,4S,9bS)-4-(3,5-dichloro-2-hydroxy-phenyl)-N-(4-methoxyphenyl)-3a,4,5,9b-tetrahydro-3H-cyclopenta[c]quinoline-8-sulfonamide
@<TRIPOS>ATOM
      1 C1         -5.5766    1.7292    2.6194 C.3       1 <0>         0.0221
      2 O1         -4.4614    1.5835    3.5010 O.3       1 <0>        -0.3167
      3 C2         -3.2329    1.8755    2.9959 C.ar      1 <0>         0.1200
      4 C3         -2.1074    1.7554    3.7976 C.ar      1 <0>        -0.1327
      5 C4         -0.8596    2.0525    3.2858 C.ar      1 <0>        -0.0860
      6 C5         -0.7318    2.4712    1.9679 C.ar      1 <0>         0.1145
      7 C6         -1.8596    2.5962    1.1676 C.ar      1 <0>        -0.1143
      8 C7         -3.1061    2.2936    1.6795 C.ar      1 <0>        -0.1857
      9 N1          0.5322    2.7724    1.4485 N.pl3     1 <0>        -1.0693
     10 S1          0.9708    2.2047   -0.0441 S.o2      1 <0>         2.6943
     11 O2          2.3133    2.6185   -0.2576 O.2       1 <0>        -0.9579
     12 O3         -0.0826    2.5468   -0.9343 O.2       1 <0>        -0.9568
     13 C8          0.9957    0.4456    0.0543 C.ar      1 <0>        -0.7217
     14 C9         -0.1685   -0.2721   -0.1521 C.ar      1 <0>         0.0268
     15 C10        -0.1454   -1.6501   -0.0736 C.ar      1 <0>        -0.2074
     16 C11         1.0432   -2.3106    0.2110 C.ar      1 <0>         0.2733
     17 C12         2.2131   -1.5956    0.4164 C.ar      1 <0>        -0.1709
     18 C13         2.1777   -0.2103    0.3312 C.ar      1 <0>         0.0254
     19 C14         3.5168   -2.2630    0.7192 C.3       1 <0>        -0.0080
     20 H1          4.2209   -1.7485    0.0487 H         1 <0>         0.0988
     21 C15         3.8871   -2.1159    2.1758 C.2       1 <0>        -0.1640
     22 C16         4.4799   -3.2031    2.6055 C.2       1 <0>        -0.1693
     23 C17         4.5906   -4.2239    1.4894 C.3       1 <0>        -0.0911
     24 C18         3.4798   -3.7866    0.4896 C.3       1 <0>        -0.0845
     25 H2          3.5866   -4.0964   -0.5605 H         1 <0>         0.1049
     26 C19         2.1549   -4.3592    1.0015 C.3       1 <0>         0.2063
     27 H3          2.0864   -5.4410    0.8146 H         1 <0>         0.1106
     28 N2          1.0497   -3.7072    0.2916 N.pl3     1 <0>        -0.7487
     29 C20         2.0294   -4.0969    2.4802 C.ar      1 <0>        -0.1088
     30 C21         1.5615   -2.8763    2.9284 C.ar      1 <0>        -0.0481
     31 C22         1.4460   -2.6343    4.2856 C.ar      1 <0>        -0.0683
     32 C23         1.7990   -3.6136    5.1975 C.ar      1 <0>        -0.0629
     33 C24         2.2674   -4.8357    4.7534 C.ar      1 <0>        -0.1238
     34 C25         2.3781   -5.0821    3.3914 C.ar      1 <0>         0.1873
     35 O4          2.8332   -6.2854    2.9521 O.3       1 <0>        -0.4960
     36 Cl1         2.7097   -6.0644    5.8973 Cl        1 <0>        -0.0520
     37 Cl2         0.8579   -1.1000    4.8455 Cl        1 <0>        -0.0574
     38 H4         -6.5018    1.4628    3.1514 H         1 <0>         0.1023
     39 H5         -5.4478    1.0646    1.7524 H         1 <0>         0.0575
     40 H6         -5.6385    2.7723    2.2758 H         1 <0>         0.0580
     41 H7         -2.2070    1.4298    4.8225 H         1 <0>         0.1328
     42 H8          0.0166    1.9596    3.9104 H         1 <0>         0.1310
     43 H9         -1.7616    2.9263    0.1439 H         1 <0>         0.1584
     44 H10        -3.9830    2.3868    1.0559 H         1 <0>         0.1345
     45 H11         1.2345    3.3862    2.0316 H         1 <0>         0.4514
     46 H12        -1.0915    0.2432   -0.3734 H         1 <0>         0.1361
     47 H13        -1.0518   -2.2151   -0.2338 H         1 <0>         0.1313
     48 H14         3.0822    0.3590    0.4864 H         1 <0>         0.1383
     49 H15         3.7283   -1.2691    2.8597 H         1 <0>         0.1274
     50 H16         4.8154   -3.2701    3.6509 H         1 <0>         0.1241
     51 H17         5.5964   -4.1755    1.0467 H         1 <0>         0.0810
     52 H18         4.4168   -5.2314    1.8954 H         1 <0>         0.0873
     53 H19         0.2524   -4.3148   -0.1614 H         1 <0>         0.4329
     54 H20         1.2861   -2.1104    2.2186 H         1 <0>         0.1562
     55 H21         1.7088   -3.4226    6.2566 H         1 <0>         0.1429
     56 H22         3.1096   -7.0664    3.6757 H         1 <0>         0.4346
@<TRIPOS>BOND
     1    1    2 1
     2    1   38 1
     3    1   39 1
     4    1   40 1
     5    2    3 1
     6    3    8 ar
     7    3    4 ar
     8    4    5 ar
     9    4   41 1
    10    5    6 ar
    11    5   42 1
    12    6    7 ar
    13    6    9 1
    14    7    8 ar
    15    7   43 1
    16    8   44 1
    17    9   10 1
    18    9   45 1
    19   10   11 2
    20   10   12 2
    21   10   13 1
    22   13   18 ar
    23   13   14 ar
    24   14   15 ar
    25   14   46 1
    26   15   16 ar
    27   15   47 1
    28   16   28 1
    29   16   17 ar
    30   17   18 ar
    31   17   19 1
    32   18   48 1
    33   19   20 1
    34   19   24 1
    35   19   21 1
    36   21   22 2
    37   21   49 1
    38   22   23 1
    39   22   50 1
    40   23   24 1
    41   23   51 1
    42   23   52 1
    43   24   25 1
    44   24   26 1
    45   26   27 1
    46   26   28 1
    47   26   29 1
    48   28   53 1
    49   29   34 ar
    50   29   30 ar
    51   30   31 ar
    52   30   54 1
    53   31   32 ar
    54   31   37 1
    55   32   33 ar
    56   32   55 1
    57   33   34 ar
    58   33   36 1
    59   34   35 1
    60   35   56 1
@<TRIPOS>MOLECULE
ZINC35300908
   66    69     0     0     0
SMALL
USER_CHARGES

@<TRIPOS>ATOM
      1 C1          2.6160   -0.5505   -2.9032 C.3       1 <0>        -0.1865
      2 C2          2.0092   -0.0490   -1.5913 C.3       1 <0>        -0.1199
      3 C3          0.7156   -0.8133   -1.3026 C.3       1 <0>        -0.1003
      4 H1          0.9110   -1.8850   -1.3392 H         1 <0>         0.0847
      5 C4          0.1997   -0.4361    0.0875 C.3       1 <0>        -0.1388
      6 C5         -0.3362   -0.4505   -2.3528 C.3       1 <0>         0.1579
      7 H2         -1.2949   -0.8872   -2.0728 H         1 <0>         0.1315
      8 C6          0.0878   -0.9882   -3.6952 C.2       1 <0>         0.5174
      9 O1          0.2811   -0.2274   -4.6197 O.2       1 <0>        -0.4615
     10 N1          0.2523   -2.3147   -3.8684 N.am      1 <0>        -0.6086
     11 C7          0.7430   -2.8025   -5.0738 C.2       1 <0>         0.2750
     12 N2          1.1132   -2.1521   -6.1690 N.2       1 <0>        -0.2679
     13 N3          1.5420   -2.7554   -7.1902 N.2       1 <0>        -0.2642
     14 C8          1.6483   -4.0782   -7.2298 C.2       1 <0>         0.1287
     15 S1          1.0628   -4.4875   -5.5880 S.3       1 <0>        -0.0139
     16 C9          2.1209   -4.9608   -8.3169 C.ar      1 <0>        -0.0837
     17 C10         2.1411   -6.3451   -8.1353 C.ar      1 <0>        -0.0345
     18 C11         2.5823   -7.1654   -9.1508 C.ar      1 <0>        -0.2004
     19 C12         3.0077   -6.6158  -10.3552 C.ar      1 <0>         0.2410
     20 C13         2.9893   -5.2376  -10.5390 C.ar      1 <0>        -0.2005
     21 C14         2.5428   -4.4125   -9.5297 C.ar      1 <0>        -0.0123
     22 N4          3.4544   -7.4492  -11.3816 N.pl3     1 <0>        -0.6303
     23 C15         3.3644   -8.9041  -11.2354 C.3       1 <0>         0.0839
     24 C16         4.0133   -6.8692  -12.6053 C.3       1 <0>         0.0869
     25 N5         -0.4673    1.0066   -2.4296 N.am      1 <0>        -0.7198
     26 C17        -1.4347    1.6340   -1.7318 C.2       1 <0>         0.7121
     27 O2         -2.1416    1.0027   -0.9701 O.2       1 <0>        -0.5630
     28 N6         -1.6186    2.9611   -1.8783 N.am      1 <0>        -0.6776
     29 C18        -2.5521    3.6285   -1.0829 C.ar      1 <0>         0.1668
     30 C19        -3.7089    2.9928   -0.6866 C.ar      1 <0>        -0.1204
     31 C20        -4.6460    3.6492    0.1057 C.ar      1 <0>        -0.0941
     32 C21        -4.4476    4.9339    0.5108 C.ar      1 <0>        -0.1236
     33 C22        -3.2810    5.6177    0.1287 C.ar      1 <0>        -0.0360
     34 C23        -2.3169    4.9580   -0.6730 C.ar      1 <0>        -0.0632
     35 C24        -1.1495    5.6406   -1.0492 C.ar      1 <0>        -0.1096
     36 C25        -0.9556    6.9231   -0.6352 C.ar      1 <0>        -0.1140
     37 C26        -1.9001    7.5707    0.1588 C.ar      1 <0>        -0.1156
     38 C27        -3.0494    6.9443    0.5320 C.ar      1 <0>        -0.1035
     39 H3          2.6922   -1.6375   -2.8762 H         1 <0>         0.0504
     40 H4          1.9792   -0.2514   -3.7358 H         1 <0>         0.0775
     41 H5          3.6090   -0.1198   -3.0323 H         1 <0>         0.0589
     42 H6          2.7166   -0.2118   -0.7781 H         1 <0>         0.0703
     43 H7          1.7911    1.0157   -1.6754 H         1 <0>         0.0671
     44 H8          0.0026    0.6354    0.1235 H         1 <0>         0.0596
     45 H9         -0.7209   -0.9820    0.2939 H         1 <0>         0.0646
     46 H10         0.9499   -0.6928    0.8355 H         1 <0>         0.0581
     47 H11         0.0283   -2.9288   -3.1518 H         1 <0>         0.4302
     48 H12         1.8115   -6.7724   -7.1998 H         1 <0>         0.1260
     49 H13         2.5981   -8.2361   -9.0110 H         1 <0>         0.1340
     50 H14         3.3206   -4.8138  -11.4754 H         1 <0>         0.1338
     51 H15         2.5239   -3.3424   -9.6748 H         1 <0>         0.1379
     52 H16         2.8447   -9.1446  -10.3079 H         1 <0>         0.0801
     53 H17         2.8139   -9.3207  -12.0789 H         1 <0>         0.0609
     54 H18         4.3677   -9.3295  -11.2105 H         1 <0>         0.0569
     55 H19         5.0894   -6.7410  -12.4880 H         1 <0>         0.0537
     56 H20         3.8162   -7.5346  -13.4457 H         1 <0>         0.0703
     57 H21         3.5503   -5.9004  -12.7925 H         1 <0>         0.0731
     58 H22         0.1423    1.5199   -2.9827 H         1 <0>         0.4087
     59 H23        -1.1024    3.4525   -2.5363 H         1 <0>         0.4086
     60 H24        -3.8904    1.9737   -0.9947 H         1 <0>         0.1455
     61 H25        -5.5455    3.1311    0.4040 H         1 <0>         0.1270
     62 H26        -5.1865    5.4272    1.1249 H         1 <0>         0.1279
     63 H27        -0.4086    5.1509   -1.6637 H         1 <0>         0.1202
     64 H28        -0.0565    7.4460   -0.9262 H         1 <0>         0.1236
     65 H29        -1.7221    8.5881    0.4745 H         1 <0>         0.1241
     66 H30        -3.7732    7.4591    1.1463 H         1 <0>         0.1294
@<TRIPOS>BOND
     1    1    2 1
     2    1   39 1
     3    1   40 1
     4    1   41 1
     5    2    3 1
     6    2   42 1
     7    2   43 1
     8    3    4 1
     9    3    5 1
    10    3    6 1
    11    5   44 1
    12    5   45 1
    13    5   46 1
    14    6    7 1
    15    6    8 1
    16    6   25 1
    17    8    9 2
    18    8   10 am
    19   10   11 1
    20   10   47 1
    21   11   15 1
    22   11   12 2
    23   12   13 1
    24   13   14 2
    25   14   15 1
    26   14   16 1
    27   16   21 ar
    28   16   17 ar
    29   17   18 ar
    30   17   48 1
    31   18   19 ar
    32   18   49 1
    33   19   20 ar
    34   19   22 1
    35   20   21 ar
    36   20   50 1
    37   21   51 1
    38   22   23 1
    39   22   24 1
    40   23   52 1
    41   23   53 1
    42   23   54 1
    43   24   55 1
    44   24   56 1
    45   24   57 1
    46   25   26 am
    47   25   58 1
    48   26   27 2
    49   26   28 am
    50   28   29 1
    51   28   59 1
    52   29   34 ar
    53   29   30 ar
    54   30   31 ar
    55   30   60 1
    56   31   32 ar
    57   31   61 1
    58   32   33 ar
    59   32   62 1
    60   33   38 ar
    61   33   34 ar
    62   34   35 ar
    63   35   36 ar
    64   35   63 1
    65   36   37 ar
    66   36   64 1
    67   37   38 ar
    68   37   65 1
    69   38   66 1
@<TRIPOS>MOLECULE
ZINC39711246
   73    77     0     0     0
SMALL
NO_CHARGES

@<TRIPOS>ATOM
      1 C1          0.6839   -4.3877    3.9583 C.3       1 <0>        -0.1175
      2 C2          0.9755   -4.4527    2.4812 C.ar      1 <0>        -0.0325
      3 C3          0.0076   -4.0996    1.5964 C.ar      1 <0>        -0.2074
      4 C4          0.3023   -4.1662    0.1645 C.ar      1 <0>         0.0846
      5 C5         -0.6383   -3.8210   -0.7600 C.2       1 <0>        -0.4949
      6 C6         -0.2458   -3.9199   -2.2211 C.3       1 <0>        -0.1718
      7 H1         -0.3740   -2.9346   -2.6693 H         1 <0>         0.2440
      8 C7          1.1559   -4.3930   -2.5339 C.2       1 <0>         0.4601
      9 O1          1.5238   -4.4906   -3.6893 O.2       1 <0>        -0.5656
     10 N1          1.9803   -4.6999   -1.5465 N.am      1 <0>        -0.5859
     11 C8          1.6396   -4.6144   -0.2607 C.ar      1 <0>        -0.0615
     12 C9          2.5700   -4.9574    0.7376 C.ar      1 <0>        -0.0781
     13 C10         2.2359   -4.8688    2.0515 C.ar      1 <0>        -0.1924
     14 C11         3.2664   -5.2405    3.0864 C.3       1 <0>        -0.0969
     15 C12        -1.2262   -4.8735   -2.9070 C.3       1 <0>        -0.0990
     16 H2         -1.1932   -4.7150   -3.9850 H         1 <0>         0.2706
     17 C13        -2.6426   -4.6038   -2.3951 C.3       1 <0>         0.1522
     18 H3         -2.7203   -4.8630   -1.3392 H         1 <0>         0.1635
     19 N2         -3.6252   -5.3606   -3.1825 N.2       1 <0>        -0.2907
     20 N3         -4.3916   -4.5672   -3.7329 N.2       1 <0>         0.1086
     21 N4         -4.0938   -3.2360   -3.4435 N.pl3     1 <0>        -0.5009
     22 N5         -3.0065   -3.1869   -2.6066 N.3       1 <0>        -0.2500
     23 C14        -1.8988   -2.4454   -3.2240 C.3       1 <0>         0.0702
     24 C15        -1.1149   -3.3773   -4.1503 C.3       1 <0>        -0.4002
     25 C16        -2.4580   -1.2738   -4.0336 C.3       1 <0>        -0.1564
     26 C17        -0.9698   -1.9129   -2.1312 C.3       1 <0>        -0.3237
     27 N6         -0.8522   -6.2614   -2.6044 N.4       1 <0>        -0.3698
     28 C18        -1.1558   -6.5548   -1.1974 C.3       1 <0>        -0.0047
     29 C19        -0.7271   -7.9628   -0.8740 C.ar      1 <0>        -0.1355
     30 C20        -1.6446   -8.9952   -0.9313 C.ar      1 <0>        -0.0943
     31 C21        -1.2515  -10.2867   -0.6347 C.ar      1 <0>        -0.1223
     32 C22         0.0594  -10.5469   -0.2805 C.ar      1 <0>        -0.0882
     33 C23         0.9775   -9.5156   -0.2228 C.ar      1 <0>        -0.1148
     34 C24         0.5859   -8.2233   -0.5252 C.ar      1 <0>        -0.0675
     35 Cl1         1.7402   -6.9283   -0.4593 Cl        1 <0>         0.0125
     36 C25        -1.6123   -7.1732   -3.4698 C.3       1 <0>         0.0484
     37 C26        -1.1261   -7.0400   -4.8900 C.2       1 <0>        -0.0771
     38 C27        -0.2047   -7.8205   -5.4825 C.2       1 <0>        -0.1511
     39 C28        -0.0541   -7.3446   -6.8053 C.2       1 <0>        -0.2116
     40 C29        -0.8926   -6.3017   -6.9420 C.2       1 <0>        -0.0056
     41 O2         -1.5435   -6.1254   -5.7805 O.3       1 <0>        -0.1693
     42 H4          0.9425   -3.3987    4.3365 H         1 <0>         0.0619
     43 H5         -0.3762   -4.5759    4.1280 H         1 <0>         0.0570
     44 H6          1.2746   -5.1416    4.4787 H         1 <0>         0.0611
     45 H7         -0.9626   -3.7757    1.9433 H         1 <0>         0.1110
     46 H8         -1.6230   -3.4909   -0.4637 H         1 <0>         0.1336
     47 H9          3.5587   -5.2896    0.4573 H         1 <0>         0.0992
     48 H10         3.1859   -6.3035    3.3138 H         1 <0>         0.0487
     49 H11         4.2629   -5.0259    2.7002 H         1 <0>         0.0469
     50 H12         3.0957   -4.6609    3.9936 H         1 <0>         0.0551
     51 H13        -4.5785   -2.4660   -3.7798 H         1 <0>         0.4567
     52 H14        -1.8009   -3.8569   -4.8485 H         1 <0>         0.0648
     53 H15        -0.3758   -2.8000   -4.7058 H         1 <0>         0.0867
     54 H16        -0.6095   -4.1390   -3.5565 H         1 <0>         0.2543
     55 H17        -2.9403   -0.5647   -3.3608 H         1 <0>         0.0718
     56 H18        -1.6450   -0.7770   -4.5629 H         1 <0>         0.0722
     57 H19        -3.1872   -1.6450   -4.7537 H         1 <0>         0.0556
     58 H20        -0.5445   -2.7493   -1.5764 H         1 <0>         0.2522
     59 H21        -0.1670   -1.3336   -2.5873 H         1 <0>         0.0586
     60 H22        -1.5361   -1.2764   -1.4513 H         1 <0>         0.0670
     61 H23        -0.6192   -5.8553   -0.5564 H         1 <0>         0.1892
     62 H24        -2.2279   -6.4535   -1.0283 H         1 <0>         0.1280
     63 H25        -2.6688   -8.7926   -1.2076 H         1 <0>         0.1359
     64 H26        -1.9688  -11.0930   -0.6794 H         1 <0>         0.1332
     65 H27         0.3658  -11.5562   -0.0485 H         1 <0>         0.1331
     66 H28         2.0014   -9.7189    0.0542 H         1 <0>         0.1350
     67 H29        -1.4688   -8.1994   -3.1314 H         1 <0>         0.1450
     68 H30        -2.6714   -6.9200   -3.4231 H         1 <0>         0.1756
     69 H31         0.3200   -8.6510   -5.0337 H         1 <0>         0.1557
     70 H32         0.6074   -7.7420   -7.5609 H         1 <0>         0.1583
     71 H33        -1.0232   -5.7092   -7.8354 H         1 <0>         0.2106
     72 H34         2.8752   -5.0014   -1.7684 H         1 <0>         0.3965
     73 H35         0.1354   -6.3870   -2.7686 H         1 <0>         0.4121
@<TRIPOS>BOND
     1    1    2 1
     2    1   42 1
     3    1   43 1
     4    1   44 1
     5    2   13 ar
     6    2    3 ar
     7    3    4 ar
     8    3   45 1
     9    4   11 ar
    10    4    5 2
    11    5    6 1
    12    5   46 1
    13    6    7 1
    14    6    8 1
    15    6   15 1
    16    8    9 2
    17    8   10 am
    18   10   11 2
    19   10   72 1
    20   11   12 ar
    21   12   13 ar
    22   12   47 1
    23   13   14 1
    24   14   48 1
    25   14   49 1
    26   14   50 1
    27   15   16 1
    28   15   17 1
    29   15   27 1
    30   17   18 1
    31   17   22 1
    32   17   19 1
    33   19   20 2
    34   20   21 1
    35   21   22 1
    36   21   51 1
    37   22   23 1
    38   23   24 1
    39   23   25 1
    40   23   26 1
    41   24   52 1
    42   24   53 1
    43   24   54 1
    44   25   55 1
    45   25   56 1
    46   25   57 1
    47   26   58 1
    48   26   59 1
    49   26   60 1
    50   27   28 1
    51   27   36 1
    52   27   73 1
    53   28   29 1
    54   28   61 1
    55   28   62 1
    56   29   34 ar
    57   29   30 ar
    58   30   31 ar
    59   30   63 1
    60   31   32 ar
    61   31   64 1
    62   32   33 ar
    63   32   65 1
    64   33   34 ar
    65   33   66 1
    66   34   35 1
    67   36   37 1
    68   36   67 1
    69   36   68 1
    70   37   41 1
    71   37   38 2
    72   38   39 1
    73   38   69 1
    74   39   40 2
    75   39   70 1
    76   40   41 1
    77   40   71 1
@<TRIPOS>MOLECULE
ZINC01767197
   62    66     0     0     0
SMALL
USER_CHARGES

@<TRIPOS>ATOM
      1 C1         -0.0166    1.5028    0.0084 C.3       1 <0>        -0.1205
      2 C2          0.0033   -0.0040    0.0006 C.ar      1 <0>        -0.0594
      3 C3          1.2058   -0.6776   -0.1110 C.ar      1 <0>        -0.1104
      4 C4          1.2274   -2.0585   -0.1185 C.ar      1 <0>        -0.0805
      5 C5          0.0401   -2.7706   -0.0132 C.ar      1 <0>         0.0769
      6 C6         -1.1657   -2.0914    0.0992 C.ar      1 <0>        -0.0807
      7 C7         -1.1804   -0.7104    0.1109 C.ar      1 <0>        -0.1103
      8 N1          0.0586   -4.1715   -0.0209 N.am      1 <0>        -0.4653
      9 C8          0.1702   -4.8368    1.1436 C.2       1 <0>         0.5602
     10 O1          0.2540   -4.2289    2.1969 O.2       1 <0>        -0.5020
     11 C9          0.1887   -6.2673    1.1285 C.2       1 <0>        -0.2482
     12 C10         0.3024   -7.1849    2.2639 C.2       1 <0>        -0.0453
     13 C11         0.2958   -8.5045    1.9871 C.2       1 <0>        -0.1698
     14 S1          0.1397   -8.6047    0.2243 S.3       1 <0>         0.1454
     15 C12         0.0850   -6.8678   -0.1376 C.2       1 <0>         0.1146
     16 N2         -0.0220   -6.1539   -1.2520 N.2       1 <0>        -0.5013
     17 C13        -0.0426   -4.8370   -1.2106 C.2       1 <0>         0.3626
     18 S2         -0.1945   -3.9220   -2.7087 S.3       1 <0>         0.1232
     19 C14        -0.2961   -5.1981   -3.9939 C.3       1 <0>        -0.1519
     20 C15        -0.4306   -4.5419   -5.3438 C.2       1 <0>         0.5321
     21 O2         -0.4555   -3.3325   -5.4304 O.2       1 <0>        -0.5233
     22 N3         -0.5233   -5.2991   -6.4550 N.am      1 <0>        -0.5077
     23 N4         -0.6483   -4.6890   -7.7100 N.pl3     1 <0>        -0.5472
     24 C16        -0.7442   -5.4728   -8.8602 C.2       1 <0>         0.1981
     25 C17        -0.7169   -6.8030   -8.7650 C.2       1 <0>        -0.3022
     26 C18        -0.8764   -4.8280  -10.1866 C.ar      1 <0>        -0.0612
     27 C19        -0.8995   -3.4370  -10.2885 C.ar      1 <0>        -0.0920
     28 C20        -1.0227   -2.8400  -11.5251 C.ar      1 <0>        -0.1401
     29 C21        -1.1243   -3.6216  -12.6682 C.ar      1 <0>         0.1151
     30 C22        -1.1017   -5.0066  -12.5704 C.ar      1 <0>        -0.1410
     31 C23        -0.9724   -5.6102  -11.3376 C.ar      1 <0>        -0.0779
     32 O3         -1.2465   -3.0300  -13.8851 O.3       1 <0>        -0.4984
     33 C24         0.3989   -9.6373    2.9625 C.3       1 <0>        -0.0363
     34 C25         0.8890   -9.0769    4.3054 C.3       1 <0>        -0.1152
     35 C26         0.0618   -7.8349    4.6500 C.3       1 <0>        -0.1228
     36 C27         0.4243   -6.6905    3.7026 C.3       1 <0>        -0.0600
     37 H1          0.0762    1.8621    1.0333 H         1 <0>         0.0767
     38 H2          0.8156    1.8803   -0.5857 H         1 <0>         0.0718
     39 H3         -0.9562    1.8559   -0.4166 H         1 <0>         0.0717
     40 H4          2.1291   -0.1232   -0.1929 H         1 <0>         0.1350
     41 H5          2.1668   -2.5840   -0.2064 H         1 <0>         0.1280
     42 H6         -2.0910   -2.6425    0.1809 H         1 <0>         0.1280
     43 H7         -2.1176   -0.1815    0.2021 H         1 <0>         0.1350
     44 H8          0.6081   -5.8065   -3.9742 H         1 <0>         0.1367
     45 H9         -1.1641   -5.8312   -3.8096 H         1 <0>         0.1366
     46 H10        -0.5034   -6.2664   -6.3858 H         1 <0>         0.4272
     47 H11        -0.6682   -3.7217   -7.7792 H         1 <0>         0.4304
     48 H12        -0.7911   -7.4097   -9.6554 H         1 <0>         0.1204
     49 H13        -0.6205   -7.2733   -7.7976 H         1 <0>         0.0972
     50 H14        -0.8212   -2.8285   -9.3997 H         1 <0>         0.1258
     51 H15        -1.0406   -1.7631  -11.6047 H         1 <0>         0.1343
     52 H16        -1.1812   -5.6116  -13.4615 H         1 <0>         0.1359
     53 H17        -0.9501   -6.6873  -11.2627 H         1 <0>         0.1382
     54 H18        -0.4025   -2.8501  -14.3215 H         1 <0>         0.3945
     55 H19        -0.5795  -10.0998    3.0928 H         1 <0>         0.0861
     56 H20         1.1088  -10.3770    2.5924 H         1 <0>         0.0843
     57 H21         0.7612   -9.8290    5.0840 H         1 <0>         0.0765
     58 H22         1.9415   -8.8048    4.2259 H         1 <0>         0.0694
     59 H23        -0.9985   -8.0667    4.5498 H         1 <0>         0.0662
     60 H24         0.2701   -7.5345    5.6769 H         1 <0>         0.0719
     61 H25         1.4481   -6.3681    3.8925 H         1 <0>         0.0791
     62 H26        -0.2587   -5.8560    3.8611 H         1 <0>         0.0857
@<TRIPOS>BOND
     1    1    2 1
     2    1   37 1
     3    1   38 1
     4    1   39 1
     5    2    7 ar
     6    2    3 ar
     7    3    4 ar
     8    3   40 1
     9    4    5 ar
    10    4   41 1
    11    5    6 ar
    12    5    8 1
    13    6    7 ar
    14    6   42 1
    15    7   43 1
    16    8   17 1
    17    8    9 am
    18    9   10 2
    19    9   11 1
    20   11   15 2
    21   11   12 1
    22   12   36 1
    23   12   13 2
    24   13   14 1
    25   13   33 1
    26   14   15 1
    27   15   16 1
    28   16   17 2
    29   17   18 1
    30   18   19 1
    31   19   20 1
    32   19   44 1
    33   19   45 1
    34   20   21 2
    35   20   22 am
    36   22   23 1
    37   22   46 1
    38   23   24 1
    39   23   47 1
    40   24   25 2
    41   24   26 1
    42   25   48 1
    43   25   49 1
    44   26   31 ar
    45   26   27 ar
    46   27   28 ar
    47   27   50 1
    48   28   29 ar
    49   28   51 1
    50   29   30 ar
    51   29   32 1
    52   30   31 ar
    53   30   52 1
    54   31   53 1
    55   32   54 1
    56   33   34 1
    57   33   55 1
    58   33   56 1
    59   34   35 1
    60   34   57 1
    61   34   58 1
    62   35   36 1
    63   35   59 1
    64   35   60 1
    65   36   61 1
    66   36   62 1
@<TRIPOS>MOLECULE
ZINC07977729
   46    48     0     0     0
SMALL
USER_CHARGES
N'-[2-[[4-amino-5-[(2-fluorophenoxy)methyl]-1,2,4-triazol-3-yl]sulfanyl]acetyl]benzohydrazide
@<TRIPOS>ATOM
      1 C1         -1.2508    6.3019    0.0421 C.ar      1 <0>        -0.0868
      2 C2         -2.4413    5.5970    0.0440 C.ar      1 <0>        -0.1257
      3 C3         -2.4296    4.2175    0.0365 C.ar      1 <0>        -0.0533
      4 C4         -1.2132    3.5330    0.0270 C.ar      1 <0>        -0.1322
      5 C5         -0.0158    4.2502    0.0310 C.ar      1 <0>        -0.0851
      6 C6         -0.0416    5.6296    0.0332 C.ar      1 <0>        -0.1247
      7 C7         -1.1931    2.0547    0.0189 C.2       1 <0>         0.5643
      8 O1         -2.2375    1.4327    0.0204 O.2       1 <0>        -0.5304
      9 N1         -0.0169    1.3968    0.0097 N.am      1 <0>        -0.5185
     10 N2          0.0021   -0.0041    0.0020 N.am      1 <0>        -0.5124
     11 C8          1.1783   -0.6620   -0.0127 C.2       1 <0>         0.5382
     12 O2          2.2202   -0.0414   -0.0194 O.2       1 <0>        -0.5223
     13 C9          1.1987   -2.1688   -0.0210 C.3       1 <0>        -0.1554
     14 S1          2.9131   -2.7489   -0.0405 S.3       1 <0>         0.1325
     15 C10         2.6468   -4.4906   -0.0473 C.2       1 <0>         0.1771
     16 N3          1.4855   -5.1028   -0.0338 N.2       1 <0>        -0.2872
     17 N4          1.6628   -6.3757   -0.0468 N.2       1 <0>        -0.2338
     18 C11         2.9365   -6.6498   -0.0609 C.2       1 <0>         0.1418
     19 N5          3.6092   -5.4590   -0.0617 N.pl3     1 <0>        -0.2957
     20 N6          4.9629   -5.2764   -0.0744 N.3       1 <0>        -0.5825
     21 C12         3.5541   -8.0243   -0.0738 C.3       1 <0>         0.1511
     22 O3          3.7628   -8.4654    1.2693 O.3       1 <0>        -0.3042
     23 C13         4.3170   -9.6957    1.4359 C.ar      1 <0>         0.0927
     24 C14         4.6474  -10.4642    0.3300 C.ar      1 <0>        -0.1817
     25 C15         5.2145  -11.7126    0.5015 C.ar      1 <0>        -0.0871
     26 C16         5.4438  -12.2009    1.7745 C.ar      1 <0>        -0.1224
     27 C17         5.1115  -11.4400    2.8799 C.ar      1 <0>        -0.1143
     28 C18         4.5480  -10.1876    2.7142 C.ar      1 <0>         0.0746
     29 F1          4.2223   -9.4441    3.7942 F         1 <0>        -0.1302
     30 H1         -1.2654    7.3818    0.0480 H         1 <0>         0.1311
     31 H2         -3.3818    6.1278    0.0510 H         1 <0>         0.1341
     32 H3         -3.3596    3.6683    0.0383 H         1 <0>         0.1394
     33 H4          0.9287    3.7266    0.0285 H         1 <0>         0.1271
     34 H5          0.8842    6.1858    0.0322 H         1 <0>         0.1331
     35 H6          0.8164    1.8932    0.0044 H         1 <0>         0.4333
     36 H7         -0.8313   -0.5005    0.0073 H         1 <0>         0.4379
     37 H8          0.6984   -2.5439    0.8718 H         1 <0>         0.1362
     38 H9          0.6814   -2.5343   -0.9081 H         1 <0>         0.1368
     39 H10         5.3306   -5.2323    0.8642 H         1 <0>         0.3733
     40 H11         5.4204   -6.0001   -0.6083 H         1 <0>         0.3773
     41 H12         2.8861   -8.7180   -0.5844 H         1 <0>         0.1112
     42 H13         4.5097   -7.9884   -0.5970 H         1 <0>         0.0835
     43 H14         4.4649  -10.0857   -0.6649 H         1 <0>         0.1388
     44 H15         5.4751  -12.3094   -0.3601 H         1 <0>         0.1365
     45 H16         5.8831  -13.1788    1.9055 H         1 <0>         0.1383
     46 H17         5.2917  -11.8237    3.8732 H         1 <0>         0.1457
@<TRIPOS>BOND
     1    1    6 ar
     2    1    2 ar
     3    1   30 1
     4    2    3 ar
     5    2   31 1
     6    3    4 ar
     7    3   32 1
     8    4    5 ar
     9    4    7 1
    10    5    6 ar
    11    5   33 1
    12    6   34 1
    13    7    8 2
    14    7    9 am
    15    9   10 1
    16    9   35 1
    17   10   11 am
    18   10   36 1
    19   11   12 2
    20   11   13 1
    21   13   14 1
    22   13   37 1
    23   13   38 1
    24   14   15 1
    25   15   19 1
    26   15   16 2
    27   16   17 1
    28   17   18 2
    29   18   19 1
    30   18   21 1
    31   19   20 1
    32   20   39 1
    33   20   40 1
    34   21   22 1
    35   21   41 1
    36   21   42 1
    37   22   23 1
    38   23   28 ar
    39   23   24 ar
    40   24   25 ar
    41   24   43 1
    42   25   26 ar
    43   25   44 1
    44   26   27 ar
    45   26   45 1
    46   27   28 ar
    47   27   46 1
    48   28   29 1
@<TRIPOS>MOLECULE
ZINC16890428
   56    59     0     0     0
SMALL
USER_CHARGES
N-[(2S,3S,4S,5R,6R)-2-(3,4-diphenyl-5-thioxo-1,2,4-triazol-1-yl)-4,5-dihydroxy-6-(hydroxymethyl)tetrahydropyran-3-yl]acetamide
@<TRIPOS>ATOM
      1 C1          0.9533    5.4609    3.1702 C.3       1 <0>        -0.1676
      2 C2          1.6443    4.9009    1.9536 C.2       1 <0>         0.5184
      3 O1          2.8423    5.0355    1.8210 O.2       1 <0>        -0.5408
      4 N1          0.9310    4.2506    1.0130 N.am      1 <0>        -0.6964
      5 C3          1.6028    3.7063   -0.1697 C.3       1 <0>         0.1190
      6 H1          2.4169    4.3689   -0.4634 H         1 <0>         0.1315
      7 C4          2.1640    2.3182    0.1539 C.3       1 <0>         0.1014
      8 H2          2.8367    2.3871    1.0087 H         1 <0>         0.0825
      9 C5          1.0038    1.3760    0.4895 C.3       1 <0>         0.0510
     10 H3          1.3895    0.3722    0.6672 H         1 <0>         0.0716
     11 C6          0.0238    1.3469   -0.6863 C.3       1 <0>         0.0343
     12 H4          0.5265    0.9513   -1.5688 H         1 <0>         0.1296
     13 O2         -0.4362    2.6731   -0.9543 O.3       1 <0>        -0.3327
     14 C7          0.5997    3.5872   -1.3200 C.3       1 <0>         0.3493
     15 H5          0.1652    4.5653   -1.5262 H         1 <0>         0.1513
     16 N2          1.2855    3.0948   -2.5173 N.pl3     1 <0>        -0.3726
     17 C8          2.1390    3.7953   -3.2918 C.2       1 <0>         0.4814
     18 S1          2.6177    5.4216   -3.0531 S.2       1 <0>        -0.5635
     19 N3          2.5497    2.9828   -4.2858 N.pl3     1 <0>        -0.4422
     20 C9          1.9300    1.7571   -4.1270 C.2       1 <0>         0.3240
     21 N4          1.1693    1.8120   -3.0697 N.2       1 <0>        -0.2426
     22 C10         2.1014    0.5812   -5.0085 C.ar      1 <0>        -0.0429
     23 C11         2.6177    0.7394   -6.2949 C.ar      1 <0>        -0.0880
     24 C12         2.7804   -0.3619   -7.1100 C.ar      1 <0>        -0.1159
     25 C13         2.4222   -1.6195   -6.6581 C.ar      1 <0>        -0.0905
     26 C14         1.9044   -1.7822   -5.3856 C.ar      1 <0>        -0.1203
     27 C15         1.7421   -0.6896   -4.5588 C.ar      1 <0>        -0.0660
     28 C16         3.4455    3.3235   -5.3075 C.ar      1 <0>         0.1150
     29 C17         4.7042    2.7389   -5.3527 C.ar      1 <0>        -0.0918
     30 C18         5.5832    3.0730   -6.3643 C.ar      1 <0>        -0.1084
     31 C19         5.2149    3.9967   -7.3252 C.ar      1 <0>        -0.0962
     32 C20         3.9640    4.5846   -7.2799 C.ar      1 <0>        -0.1059
     33 C21         3.0786    4.2508   -6.2738 C.ar      1 <0>        -0.0811
     34 C22        -1.1684    0.4547   -0.3349 C.3       1 <0>         0.0836
     35 O3         -2.0246    0.3338   -1.4726 O.3       1 <0>        -0.5561
     36 O4          0.3323    1.8439    1.6610 O.3       1 <0>        -0.5433
     37 O5          2.8777    1.8138   -0.9767 O.3       1 <0>        -0.5479
     38 H6          0.9412    4.7091    3.9594 H         1 <0>         0.0950
     39 H7          1.4889    6.3442    3.5179 H         1 <0>         0.0943
     40 H8         -0.0701    5.7343    2.9131 H         1 <0>         0.0807
     41 H9         -0.0272    4.1430    1.1191 H         1 <0>         0.4097
     42 H10         2.8931    1.7213   -6.6505 H         1 <0>         0.1331
     43 H11         3.1838   -0.2413   -8.1045 H         1 <0>         0.1334
     44 H12         2.5477   -2.4779   -7.3014 H         1 <0>         0.1314
     45 H13         1.6263   -2.7665   -5.0388 H         1 <0>         0.1337
     46 H14         1.3374   -0.8179   -3.5657 H         1 <0>         0.1327
     47 H15         4.9940    2.0207   -4.6000 H         1 <0>         0.1284
     48 H16         6.5608    2.6156   -6.4024 H         1 <0>         0.1358
     49 H17         5.9058    4.2599   -8.1125 H         1 <0>         0.1338
     50 H18         3.6793    5.3057   -8.0317 H         1 <0>         0.1368
     51 H19         2.1021    4.7107   -6.2385 H         1 <0>         0.1310
     52 H20        -0.8099   -0.5326   -0.0435 H         1 <0>         0.0623
     53 H21        -1.7231    0.8984    0.4918 H         1 <0>         0.0547
     54 H22        -2.8032   -0.2194   -1.3219 H         1 <0>         0.3821
     55 H23        -0.4164    1.2946    1.9309 H         1 <0>         0.3784
     56 H24         3.2552    0.9337   -0.8428 H         1 <0>         0.3817
@<TRIPOS>BOND
     1    1    2 1
     2    1   38 1
     3    1   39 1
     4    1   40 1
     5    2    3 2
     6    2    4 am
     7    4    5 1
     8    4   41 1
     9    5    6 1
    10    5   14 1
    11    5    7 1
    12    7    8 1
    13    7    9 1
    14    7   37 1
    15    9   10 1
    16    9   11 1
    17    9   36 1
    18   11   12 1
    19   11   13 1
    20   11   34 1
    21   13   14 1
    22   14   15 1
    23   14   16 1
    24   16   21 1
    25   16   17 1
    26   17   18 2
    27   17   19 1
    28   19   20 1
    29   19   28 1
    30   20   21 2
    31   20   22 1
    32   22   27 ar
    33   22   23 ar
    34   23   24 ar
    35   23   42 1
    36   24   25 ar
    37   24   43 1
    38   25   26 ar
    39   25   44 1
    40   26   27 ar
    41   26   45 1
    42   27   46 1
    43   28   33 ar
    44   28   29 ar
    45   29   30 ar
    46   29   47 1
    47   30   31 ar
    48   30   48 1
    49   31   32 ar
    50   31   49 1
    51   32   33 ar
    52   32   50 1
    53   33   51 1
    54   34   35 1
    55   34   52 1
    56   34   53 1
    57   35   54 1
    58   36   55 1
    59   37   56 1
@<TRIPOS>MOLECULE
ZINC31631752
   49    52     0     0     0
SMALL
USER_CHARGES
2-[[2-[(4S)-4-methyl-2,5-dioxo-4-phenyl-imidazolidin-1-yl]acetyl]amino]-5,6-dihydro-4H-cyclopenta[b]thiophene-3-carboxamide
@<TRIPOS>ATOM
      1 C1         -1.2070   -2.9483    1.1103 C.3       1 <0>        -0.1447
      2 C2          0.0369   -2.2019    0.6241 C.3       1 <0>         0.1593
      3 C3          0.0230   -0.7670    1.1127 C.2       1 <0>         0.5397
      4 O1          0.0299   -0.3852    2.2634 O.2       1 <0>        -0.4545
      5 N1          0.0021   -0.0041    0.0020 N.am      1 <0>        -0.5623
      6 C4         -0.0041   -0.7497   -1.1088 C.2       1 <0>         0.7217
      7 O2         -0.0263   -0.2875   -2.2327 O.2       1 <0>        -0.5380
      8 N2          0.0208   -2.0682   -0.8429 N.am      1 <0>        -0.7242
      9 C5         -0.0178    1.4608    0.0101 C.3       1 <0>         0.1051
     10 C6          1.3960    1.9824   -0.0006 C.2       1 <0>         0.4979
     11 O3          2.3284    1.2069   -0.0137 O.2       1 <0>        -0.4874
     12 N3          1.6243    3.3107    0.0043 N.am      1 <0>        -0.6282
     13 C7          2.9252    3.7906   -0.0055 C.2       1 <0>         0.0761
     14 C8          3.3569    5.1059   -0.0082 C.2       1 <0>        -0.2137
     15 C9          4.7997    5.3451   -0.0142 C.2       1 <0>        -0.0956
     16 C10         5.5622    4.2370   -0.0290 C.2       1 <0>        -0.2372
     17 S1          4.4035    2.8909   -0.0250 S.3       1 <0>         0.2547
     18 C11         7.0310    4.5632   -0.0451 C.3       1 <0>        -0.0367
     19 C12         7.0958    6.0455   -0.4748 C.3       1 <0>        -0.1113
     20 C13         5.7199    6.5665   -0.0141 C.3       1 <0>        -0.0557
     21 C14         2.4023    6.2188   -0.0007 C.2       1 <0>         0.5841
     22 O4          2.0143    6.6806    1.0564 O.2       1 <0>        -0.5433
     23 N4          1.9546    6.7304   -1.1644 N.am      1 <0>        -0.8703
     24 C15         1.2902   -2.9046    1.0786 C.ar      1 <0>        -0.0950
     25 C16         1.9033   -2.5296    2.2595 C.ar      1 <0>        -0.1066
     26 C17         3.0499   -3.1778    2.6791 C.ar      1 <0>        -0.1128
     27 C18         3.5895   -4.1936    1.9124 C.ar      1 <0>        -0.1088
     28 C19         2.9796   -4.5648    0.7287 C.ar      1 <0>        -0.1176
     29 C20         1.8298   -3.9204    0.3119 C.ar      1 <0>        -0.0966
     30 H1         -1.1760   -3.0375    2.2062 H         1 <0>         0.0871
     31 H2         -1.2311   -3.9522    0.6612 H         1 <0>         0.0849
     32 H3         -2.1081   -2.3918    0.8130 H         1 <0>         0.0724
     33 H4          0.0301   -2.9668   -1.4772 H         1 <0>         0.4701
     34 H5         -0.5498    1.8252   -0.8811 H         1 <0>         0.1396
     35 H6         -0.5327    1.8155    0.9151 H         1 <0>         0.1372
     36 H7          0.7786    4.0141    0.0161 H         1 <0>         0.4478
     37 H8          7.4518    4.4094    0.9595 H         1 <0>         0.0839
     38 H9          7.5447    3.9062   -0.7623 H         1 <0>         0.0784
     39 H10         7.9377    6.5381    0.0336 H         1 <0>         0.0846
     40 H11         7.2391    6.1057   -1.5638 H         1 <0>         0.0778
     41 H12         5.3243    7.3236   -0.7071 H         1 <0>         0.0719
     42 H13         5.7692    6.9884    1.0006 H         1 <0>         0.0822
     43 H14         1.2384    7.5653   -1.1588 H         1 <0>         0.4227
     44 H15         2.3053    6.3130   -2.1198 H         1 <0>         0.4226
     45 H16         1.4841   -1.7330    2.8563 H         1 <0>         0.1371
     46 H17         3.5262   -2.8881    3.6041 H         1 <0>         0.1270
     47 H18         4.4874   -4.6975    2.2383 H         1 <0>         0.1259
     48 H19         3.4012   -5.3584    0.1296 H         1 <0>         0.1274
     49 H20         1.3533   -4.2104   -0.6129 H         1 <0>         0.1213
@<TRIPOS>BOND
     1    1    2 1
     2    1   30 1
     3    1   31 1
     4    1   32 1
     5    2    8 1
     6    2    3 1
     7    2   24 1
     8    3    4 2
     9    3    5 am
    10    5    6 am
    11    5    9 1
    12    6    7 2
    13    6    8 am
    14    8   33 1
    15    9   10 1
    16    9   34 1
    17    9   35 1
    18   10   11 2
    19   10   12 am
    20   12   13 1
    21   12   36 1
    22   13   17 1
    23   13   14 2
    24   14   15 1
    25   14   21 1
    26   15   20 1
    27   15   16 2
    28   16   17 1
    29   16   18 1
    30   18   19 1
    31   18   37 1
    32   18   38 1
    33   19   20 1
    34   19   39 1
    35   19   40 1
    36   20   41 1
    37   20   42 1
    38   21   22 2
    39   21   23 am
    40   23   43 1
    41   23   44 1
    42   24   29 ar
    43   24   25 ar
    44   25   26 ar
    45   25   45 1
    46   26   27 ar
    47   26   46 1
    48   27   28 ar
    49   27   47 1
    50   28   29 ar
    51   28   48 1
    52   29   49 1
@<TRIPOS>MOLECULE
ZINC20611747
   63    67     0     0     0
SMALL
USER_CHARGES

@<TRIPOS>ATOM
      1 C1         -0.0184    1.5028    0.0103 C.3       1 <0>        -0.1119
      2 C2          0.0021   -0.0041    0.0020 C.ar      1 <0>        -0.1000
      3 C3          0.0058   -0.6907   -1.1985 C.ar      1 <0>        -0.0797
      4 C4          0.0255   -2.0698   -1.2122 C.ar      1 <0>        -0.0969
      5 C5          0.0409   -2.7824   -0.0154 C.ar      1 <0>         0.1418
      6 C6          0.0363   -2.0808    1.1865 C.ar      1 <0>        -0.1140
      7 C7          0.0229   -0.7039    1.1954 C.ar      1 <0>        -0.0476
      8 C8          0.0560   -3.1218    2.2697 C.3       1 <0>         0.1276
      9 C9         -1.1664   -3.0020    3.1873 C.3       1 <0>        -0.1042
     10 H1         -1.6218   -2.0124    3.1496 H         1 <0>         0.1470
     11 C10        -0.6331   -3.3650    4.6013 C.3       1 <0>        -0.1183
     12 H2         -0.7991   -2.5744    5.3330 H         1 <0>         0.1466
     13 C11         0.8642   -3.6767    4.3907 C.3       1 <0>         0.0824
     14 H3          1.0137   -4.7484    4.2594 H         1 <0>         0.0722
     15 N1          1.2348   -2.9715    3.1428 N.3       1 <0>        -0.6132
     16 C12         1.6860   -3.1668    5.5762 C.3       1 <0>        -0.0883
     17 C13         3.1452   -3.5947    5.4069 C.3       1 <0>        -0.1443
     18 C14         3.9546   -3.0925    6.5747 C.2       1 <0>         0.5179
     19 O1          3.4174   -2.4551    7.4556 O.2       1 <0>        -0.5400
     20 N2          5.2756   -3.3517    6.6401 N.am      1 <0>        -0.8588
     21 C15        -1.3769   -4.6379    4.9376 C.2       1 <0>         0.5375
     22 O2         -1.2605   -5.2657    5.9681 O.2       1 <0>        -0.4703
     23 N3         -2.1834   -4.9636    3.9209 N.am      1 <0>        -0.5581
     24 C16        -2.1508   -4.1062    2.8755 C.2       1 <0>         0.5282
     25 O3         -2.7976   -4.2003    1.8545 O.2       1 <0>        -0.4356
     26 C17        -3.0400   -6.1519    3.9386 C.3       1 <0>         0.1565
     27 C18        -4.3799   -5.7965    4.5295 C.ar      1 <0>        -0.1558
     28 C19        -4.6552   -6.0976    5.8496 C.ar      1 <0>        -0.0557
     29 C20        -5.8844   -5.7723    6.3922 C.ar      1 <0>        -0.1618
     30 C21        -6.8412   -5.1446    5.6158 C.ar      1 <0>        -0.0685
     31 C22        -6.5708   -4.8411    4.2958 C.ar      1 <0>        -0.2153
     32 C23        -5.3360   -5.1618    3.7503 C.ar      1 <0>         0.1446
     33 O4         -5.0655   -4.8593    2.4533 O.3       1 <0>        -0.2914
     34 C24        -6.0969   -4.2057    1.7109 C.3       1 <0>         0.0308
     35 C25         0.0729   -4.4399    1.5451 C.2       1 <0>         0.5034
     36 O5          0.0927   -5.5430    2.0490 O.2       1 <0>        -0.4862
     37 N4          0.0619   -4.1574    0.2281 N.am      1 <0>        -0.6476
     38 C26         0.0299   -2.8079   -2.5260 C.3       1 <0>        -0.1157
     39 H4          1.0042    1.8801    0.0026 H         1 <0>         0.0723
     40 H5         -0.5455    1.8639   -0.8728 H         1 <0>         0.0677
     41 H6         -0.5286    1.8543    0.9071 H         1 <0>         0.0686
     42 H7         -0.0063   -0.1442   -2.1300 H         1 <0>         0.1325
     43 H8          0.0241   -0.1700    2.1342 H         1 <0>         0.1336
     44 H9          2.0533   -3.3823    2.7192 H         1 <0>         0.3516
     45 H10         1.6287   -2.0791    5.6170 H         1 <0>         0.0896
     46 H11         1.2892   -3.5865    6.5007 H         1 <0>         0.0875
     47 H12         3.2024   -4.6824    5.3661 H         1 <0>         0.0933
     48 H13         3.5419   -3.1751    4.4825 H         1 <0>         0.0972
     49 H14         5.7053   -3.8614    5.9355 H         1 <0>         0.4013
     50 H15         5.7966   -3.0284    7.3917 H         1 <0>         0.4018
     51 H16        -3.1770   -6.5162    2.9204 H         1 <0>         0.1017
     52 H17        -2.5711   -6.9289    4.5424 H         1 <0>         0.1007
     53 H18        -3.9095   -6.5877    6.4580 H         1 <0>         0.1332
     54 H19        -6.0978   -6.0090    7.4241 H         1 <0>         0.1269
     55 H20        -7.8009   -4.8918    6.0419 H         1 <0>         0.1263
     56 H21        -7.3185   -4.3510    3.6898 H         1 <0>         0.1293
     57 H22        -5.7516   -4.0222    0.6934 H         1 <0>         0.1001
     58 H23        -6.9832   -4.8396    1.6850 H         1 <0>         0.0529
     59 H24        -6.3424   -3.2569    2.1879 H         1 <0>         0.0520
     60 H25         0.0678   -4.8307   -0.4701 H         1 <0>         0.4146
     61 H26         1.0585   -2.9712   -2.8476 H         1 <0>         0.0727
     62 H27        -0.4697   -3.7691   -2.4044 H         1 <0>         0.0610
     63 H28        -0.4960   -2.2175   -3.2763 H         1 <0>         0.0743
@<TRIPOS>BOND
     1    1    2 1
     2    1   39 1
     3    1   40 1
     4    1   41 1
     5    2    7 ar
     6    2    3 ar
     7    3    4 ar
     8    3   42 1
     9    4    5 ar
    10    4   38 1
    11    5   37 1
    12    5    6 ar
    13    6    7 ar
    14    6    8 1
    15    7   43 1
    16    8   15 1
    17    8    9 1
    18    8   35 1
    19    9   10 1
    20    9   24 1
    21    9   11 1
    22   11   12 1
    23   11   13 1
    24   11   21 1
    25   13   14 1
    26   13   15 1
    27   13   16 1
    28   15   44 1
    29   16   17 1
    30   16   45 1
    31   16   46 1
    32   17   18 1
    33   17   47 1
    34   17   48 1
    35   18   19 2
    36   18   20 am
    37   20   49 1
    38   20   50 1
    39   21   22 2
    40   21   23 am
    41   23   24 am
    42   23   26 1
    43   24   25 2
    44   26   27 1
    45   26   51 1
    46   26   52 1
    47   27   32 ar
    48   27   28 ar
    49   28   29 ar
    50   28   53 1
    51   29   30 ar
    52   29   54 1
    53   30   31 ar
    54   30   55 1
    55   31   32 ar
    56   31   56 1
    57   32   33 1
    58   33   34 1
    59   34   57 1
    60   34   58 1
    61   34   59 1
    62   35   36 2
    63   35   37 am
    64   37   60 1
    65   38   61 1
    66   38   62 1
    67   38   63 1
@<TRIPOS>MOLECULE
ZINC59845319
   38    39     0     0     0
SMALL
USER_CHARGES

@<TRIPOS>ATOM
      1 C1         -0.1158    1.4713    0.1383 C.3       1 <0>        -0.1478
      2 C2          0.0241   -0.0433   -0.0270 C.3       1 <0>        -0.1121
      3 H1          0.5565   -0.2601   -0.9531 H         1 <0>         0.1300
      4 C3          0.7946   -0.6068    1.1391 C.2       1 <0>         0.5416
      5 O1          0.2047   -1.1392    2.0553 O.2       1 <0>        -0.5202
      6 N1          2.1393   -0.5192    1.1638 N.am      1 <0>        -0.5159
      7 N2          2.8556   -1.0431    2.2479 N.am      1 <0>        -0.5228
      8 C4          4.2003   -0.9555    2.2726 C.2       1 <0>         0.5132
      9 O2          4.7903   -0.4231    1.3564 O.2       1 <0>        -0.5417
     10 C5          4.9708   -1.5190    3.4388 C.3       1 <0>        -0.1619
     11 S1         -1.6235   -0.7999   -0.0854 S.3       1 <0>         0.1150
     12 C6         -2.3345   -0.1595   -1.5649 C.2       1 <0>         0.1809
     13 N3         -1.7628    0.6701   -2.4090 N.2       1 <0>        -0.2870
     14 N4         -2.5626    0.9322   -3.3801 N.2       1 <0>        -0.2253
     15 C7         -3.6936    0.2863   -3.2161 C.2       1 <0>         0.1790
     16 N5         -3.5800   -0.4374   -2.0515 N.pl3     1 <0>        -0.2967
     17 N6         -4.5186   -1.2599   -1.4960 N.3       1 <0>        -0.5817
     18 C8         -4.8658    0.3248   -4.1159 C.ar      1 <0>         0.0007
     19 C9         -6.1450    0.5210   -3.5928 C.ar      1 <0>        -0.1015
     20 C10        -7.2346    0.5563   -4.4378 C.ar      1 <0>        -0.0990
     21 C11        -7.0623    0.3977   -5.8018 C.ar      1 <0>        -0.0938
     22 C12        -5.7979    0.2029   -6.3275 C.ar      1 <0>        -0.0872
     23 C13        -4.6978    0.1707   -5.4935 C.ar      1 <0>        -0.0550
     24 Br1        -2.9689   -0.0880   -6.2146 Br        1 <0>        -0.0170
     25 H2          0.8743    1.9259    0.1734 H         1 <0>         0.0757
     26 H3         -0.6731    1.8789   -0.7051 H         1 <0>         0.0912
     27 H4         -0.6482    1.6881    1.0644 H         1 <0>         0.0753
     28 H5          2.6111   -0.0934    0.4311 H         1 <0>         0.4358
     29 H6          2.3838   -1.4689    2.9807 H         1 <0>         0.4342
     30 H7          5.2244   -2.5599    3.2377 H         1 <0>         0.1030
     31 H8          5.8853   -0.9434    3.5822 H         1 <0>         0.1046
     32 H9          4.3601   -1.4613    4.3397 H         1 <0>         0.0872
     33 H10        -5.1703   -0.7356   -0.9317 H         1 <0>         0.3682
     34 H11        -5.0005   -1.7903   -2.2063 H         1 <0>         0.3789
     35 H12        -6.2813    0.6446   -2.5286 H         1 <0>         0.1278
     36 H13        -8.2248    0.7077   -4.0340 H         1 <0>         0.1396
     37 H14        -7.9191    0.4259   -6.4587 H         1 <0>         0.1410
     38 H15        -5.6703    0.0794   -7.3928 H         1 <0>         0.1438
@<TRIPOS>BOND
     1    1    2 1
     2    1   25 1
     3    1   26 1
     4    1   27 1
     5    2    3 1
     6    2    4 1
     7    2   11 1
     8    4    5 2
     9    4    6 am
    10    6    7 1
    11    6   28 1
    12    7    8 am
    13    7   29 1
    14    8    9 2
    15    8   10 1
    16   10   30 1
    17   10   31 1
    18   10   32 1
    19   11   12 1
    20   12   16 1
    21   12   13 2
    22   13   14 1
    23   14   15 2
    24   15   16 1
    25   15   18 1
    26   16   17 1
    27   17   33 1
    28   17   34 1
    29   18   23 ar
    30   18   19 ar
    31   19   20 ar
    32   19   35 1
    33   20   21 ar
    34   20   36 1
    35   21   22 ar
    36   21   37 1
    37   22   23 ar
    38   22   38 1
    39   23   24 1
@<TRIPOS>MOLECULE
ZINC06660606
   56    60     0     0     0
SMALL
USER_CHARGES

@<TRIPOS>ATOM
      1 C1         -0.0184    1.5028    0.0103 C.3       1 <0>        -0.1282
      2 C2          0.0021   -0.0041    0.0020 C.ar      1 <0>        -0.0604
      3 C3          0.0057   -0.6887   -1.1989 C.ar      1 <0>        -0.1107
      4 C4          0.0245   -2.0709   -1.2065 C.ar      1 <0>        -0.1127
      5 C5          0.0400   -2.7685   -0.0132 C.ar      1 <0>        -0.1173
      6 C6          0.0373   -2.0839    1.1877 C.ar      1 <0>        -0.0976
      7 C7          0.0229   -0.7016    1.1953 C.ar      1 <0>        -0.1097
      8 C8          0.0595   -4.2753   -0.0215 C.3       1 <0>         0.0640
      9 H1          0.0584   -4.6301   -1.0521 H         1 <0>         0.1122
     10 C9          1.3050   -4.7610    0.6709 C.ar      1 <0>        -0.1403
     11 C10         2.5160   -4.7045    0.0027 C.ar      1 <0>        -0.0560
     12 C11         3.6718   -5.1434    0.6170 C.ar      1 <0>        -0.1321
     13 C12         3.6220   -5.6437    1.9108 C.ar      1 <0>         0.1581
     14 C13         2.4121   -5.7012    2.5822 C.ar      1 <0>        -0.1319
     15 C14         1.2494   -5.2594    1.9625 C.ar      1 <0>         0.1006
     16 O1          0.0764   -5.3257    2.6382 O.3       1 <0>        -0.1909
     17 C15        -1.0943   -5.2889    1.9687 C.ar      1 <0>         0.4574
     18 C16        -1.1620   -4.7915    0.6825 C.ar      1 <0>        -0.2638
     19 C17        -2.3986   -4.7772    0.0432 C.ar      1 <0>         0.5061
     20 N1         -3.4639   -5.2410    0.6944 N.ar      1 <0>        -0.4612
     21 C18        -3.3534   -5.7059    1.9220 C.ar      1 <0>         0.4211
     22 N2         -2.2078   -5.7345    2.5489 N.ar      1 <0>        -0.4861
     23 C19        -4.7737   -5.2336    0.0382 C.3       1 <0>         0.0591
     24 C20        -4.9241   -6.4952   -0.8143 C.3       1 <0>        -0.1748
     25 C21        -6.2920   -6.4874   -1.4997 C.3       1 <0>         0.0990
     26 N3         -6.4360   -7.6954   -2.3160 N.pl3     1 <0>        -0.4187
     27 C22        -6.0755   -7.8362   -3.6289 C.2       1 <0>         0.0200
     28 C23        -6.3799   -9.0993   -3.9833 C.2       1 <0>         0.0154
     29 N4         -6.9118   -9.7130   -2.9158 N.pl3     1 <0>        -0.4709
     30 C24        -6.9439   -8.8797   -1.9120 C.cat     1 <0>         0.2948
     31 N5         -2.5192   -4.2885   -1.2483 N.pl3     1 <0>        -0.7978
     32 O2          4.7584   -6.0769    2.5173 O.3       1 <0>        -0.4858
     33 H2          1.0042    1.8801    0.0026 H         1 <0>         0.0820
     34 H3         -0.5455    1.8639   -0.8728 H         1 <0>         0.0734
     35 H4         -0.5286    1.8543    0.9071 H         1 <0>         0.0729
     36 H5         -0.0064   -0.1436   -2.1312 H         1 <0>         0.1328
     37 H6          0.0266   -2.6057   -2.1448 H         1 <0>         0.1245
     38 H7          0.0491   -2.6289    2.1200 H         1 <0>         0.1131
     39 H8          0.0245   -0.1667    2.1335 H         1 <0>         0.1307
     40 H9          2.5568   -4.3157   -1.0040 H         1 <0>         0.1456
     41 H10         4.6141   -5.0977    0.0912 H         1 <0>         0.1512
     42 H11         2.3721   -6.0904    3.5888 H         1 <0>         0.1559
     43 H12        -4.2358   -6.0750    2.4236 H         1 <0>         0.2543
     44 H13        -5.5587   -5.2102    0.7941 H         1 <0>         0.1497
     45 H14        -4.8560   -4.3528   -0.5986 H         1 <0>         0.1257
     46 H15        -4.1391   -6.5186   -1.5702 H         1 <0>         0.0954
     47 H16        -4.8418   -7.3760   -0.1775 H         1 <0>         0.1056
     48 H17        -7.0770   -6.4640   -0.7438 H         1 <0>         0.1354
     49 H18        -6.3743   -5.6066   -2.1365 H         1 <0>         0.1333
     50 H19        -5.6324   -7.0797   -4.2596 H         1 <0>         0.2248
     51 H20        -6.2232   -9.5407   -4.9564 H         1 <0>         0.2277
     52 H21        -7.3173   -9.0999   -0.9228 H         1 <0>         0.2633
     53 H22        -1.7378   -3.9525   -1.7146 H         1 <0>         0.4421
     54 H23        -3.3849   -4.2826   -1.6858 H         1 <0>         0.4211
     55 H24         5.2263   -5.3904    3.0122 H         1 <0>         0.4088
     56 H25        -7.2204  -10.6322   -2.8926 H         1 <0>         0.4703
@<TRIPOS>BOND
     1    1    2 1
     2    1   33 1
     3    1   34 1
     4    1   35 1
     5    2    7 ar
     6    2    3 ar
     7    3    4 ar
     8    3   36 1
     9    4    5 ar
    10    4   37 1
    11    5    6 ar
    12    5    8 1
    13    6    7 ar
    14    6   38 1
    15    7   39 1
    16    8    9 1
    17    8   18 1
    18    8   10 1
    19   10   15 ar
    20   10   11 ar
    21   11   12 ar
    22   11   40 1
    23   12   13 ar
    24   12   41 1
    25   13   14 ar
    26   13   32 1
    27   14   15 ar
    28   14   42 1
    29   15   16 1
    30   16   17 1
    31   17   22 ar
    32   17   18 ar
    33   18   19 ar
    34   19   20 ar
    35   19   31 1
    36   20   21 ar
    37   20   23 1
    38   21   22 ar
    39   21   43 1
    40   23   24 1
    41   23   44 1
    42   23   45 1
    43   24   25 1
    44   24   46 1
    45   24   47 1
    46   25   26 1
    47   25   48 1
    48   25   49 1
    49   26   30 1
    50   26   27 1
    51   27   28 2
    52   27   50 1
    53   28   29 1
    54   28   51 1
    55   29   30 2
    56   29   56 1
    57   30   52 1
    58   31   53 1
    59   31   54 1
    60   32   55 1
@<TRIPOS>MOLECULE
ZINC39629988
   69    72     0     0     0
SMALL
USER_CHARGES

@<TRIPOS>ATOM
      1 C1          6.6332    6.5047   -2.3603 C.2       1 <0>         0.0094
      2 C2          7.1089    5.2728   -2.0960 C.2       1 <0>         0.0211
      3 N1          6.1111    4.5929   -1.4513 N.pl3     1 <0>        -0.4124
      4 C3          5.0597    5.4335   -1.3439 C.cat     1 <0>         0.2920
      5 N2          5.3791    6.5750   -1.8897 N.pl3     1 <0>        -0.4741
      6 C4          6.1724    3.2112   -0.9679 C.3       1 <0>         0.0952
      7 C5          6.6961    3.1966    0.4696 C.3       1 <0>        -0.1528
      8 C6          6.7601    1.7536    0.9743 C.3       1 <0>         0.1186
      9 N3          7.2615    1.7396    2.3508 N.am      1 <0>        -0.7358
     10 C7          7.4027    0.5695    3.0046 C.2       1 <0>         0.5199
     11 O1          7.1147   -0.4717    2.4535 O.2       1 <0>        -0.5070
     12 C8          7.9186    0.5551    4.4205 C.3       1 <0>        -0.1146
     13 H1          7.6444    1.4772    4.9330 H         1 <0>         0.1179
     14 C9          7.3641   -0.6693    5.1826 C.3       1 <0>         0.1150
     15 N4          8.4197   -1.7011    5.0523 N.am      1 <0>        -0.6231
     16 C10         9.6896   -0.9491    5.1929 C.3       1 <0>         0.1042
     17 C11         9.4452    0.3695    4.4324 C.3       1 <0>        -0.0736
     18 C12         9.9754    0.2606    3.0059 C.3       1 <0>        -0.1431
     19 C13        11.5010    0.1337    3.0419 C.3       1 <0>        -0.0104
     20 N5         12.0757    1.3072    3.7107 N.4       1 <0>        -0.5040
     21 C14        11.6336    1.3530    5.1097 C.3       1 <0>        -0.0117
     22 C15        10.1136    1.5311    5.1612 C.3       1 <0>        -0.1325
     23 C16         8.2612   -3.0243    4.8513 C.2       1 <0>         0.5447
     24 O2          9.2326   -3.7454    4.7658 O.2       1 <0>        -0.5273
     25 C17         6.8768   -3.6079    4.7326 C.3       1 <0>        -0.1352
     26 C18         6.9775   -5.1182    4.5096 C.3       1 <0>        -0.0971
     27 C19         5.5720   -5.7108    4.3892 C.3       1 <0>        -0.0923
     28 C20         4.8406   -5.6157    5.7441 C.3       1 <0>        -0.1219
     29 C21         4.0199   -6.9268    5.8255 C.3       1 <0>        -0.1276
     30 C22         4.9771   -7.9689    5.1958 C.3       1 <0>        -0.1274
     31 C23         5.6588   -7.2070    4.0406 C.3       1 <0>        -0.1224
     32 H2          7.1692    7.2984   -2.8594 H         1 <0>         0.2254
     33 H3          8.0891    4.8941   -2.3452 H         1 <0>         0.2224
     34 H4          4.1114    5.1997   -0.8828 H         1 <0>         0.2611
     35 H5          5.1752    2.7720   -0.9959 H         1 <0>         0.1279
     36 H6          6.8421    2.6330   -1.6045 H         1 <0>         0.1284
     37 H7          7.6933    3.6358    0.4975 H         1 <0>         0.0857
     38 H8          6.0264    3.7748    1.1062 H         1 <0>         0.0887
     39 H9          5.7629    1.3144    0.9464 H         1 <0>         0.0826
     40 H10         7.4298    1.1754    0.3377 H         1 <0>         0.0791
     41 H11         7.4919    2.5724    2.7915 H         1 <0>         0.4015
     42 H12         7.2016   -0.4223    6.2318 H         1 <0>         0.0918
     43 H13         6.4370   -1.0142    4.7246 H         1 <0>         0.0983
     44 H14         9.8983   -0.7480    6.2437 H         1 <0>         0.0851
     45 H15        10.5119   -1.5029    4.7400 H         1 <0>         0.0884
     46 H16         9.5482   -0.6194    2.5251 H         1 <0>         0.1220
     47 H17         9.6976    1.1532    2.4453 H         1 <0>         0.0900
     48 H18        11.7776   -0.7677    3.5887 H         1 <0>         0.1367
     49 H19        11.8843    0.0723    2.0233 H         1 <0>         0.1383
     50 H20        13.0826    1.2510    3.6793 H         1 <0>         0.4366
     51 H21        11.9073    0.4228    5.6076 H         1 <0>         0.1353
     52 H22        12.1147    2.1903    5.6152 H         1 <0>         0.1419
     53 H23         9.8405    2.4693    4.6780 H         1 <0>         0.0943
     54 H24         9.7840    1.5468    6.2001 H         1 <0>         0.1235
     55 H25         6.3203   -3.4123    5.6492 H         1 <0>         0.0952
     56 H26         6.3604   -3.1497    3.8892 H         1 <0>         0.0974
     57 H27         7.5340   -5.3139    3.5931 H         1 <0>         0.0691
     58 H28         7.4939   -5.5765    5.3531 H         1 <0>         0.0723
     59 H29         5.0081   -5.1806    3.6217 H         1 <0>         0.0707
     60 H30         5.5587   -5.5637    6.5625 H         1 <0>         0.0660
     61 H31         4.1788   -4.7497    5.7605 H         1 <0>         0.0621
     62 H32         3.8000   -7.1811    6.8624 H         1 <0>         0.0673
     63 H33         3.1017   -6.8445    5.2438 H         1 <0>         0.0671
     64 H34         5.7173   -8.2970    5.9256 H         1 <0>         0.0658
     65 H35         4.4151   -8.8203    4.8119 H         1 <0>         0.0668
     66 H36         5.1364   -7.4031    3.1043 H         1 <0>         0.0643
     67 H37         6.7023   -7.5110    3.9572 H         1 <0>         0.0659
     68 H38        11.7733    2.1448    3.2363 H         1 <0>         0.4246
     69 H39         4.8011    7.3519   -1.9458 H         1 <0>         0.4681
@<TRIPOS>BOND
     1    1    5 1
     2    1    2 2
     3    1   32 1
     4    2    3 1
     5    2   33 1
     6    3    4 1
     7    3    6 1
     8    4    5 2
     9    4   34 1
    10    5   69 1
    11    6    7 1
    12    6   35 1
    13    6   36 1
    14    7    8 1
    15    7   37 1
    16    7   38 1
    17    8    9 1
    18    8   39 1
    19    8   40 1
    20    9   10 am
    21    9   41 1
    22   10   11 2
    23   10   12 1
    24   12   13 1
    25   12   17 1
    26   12   14 1
    27   14   15 1
    28   14   42 1
    29   14   43 1
    30   15   16 1
    31   15   23 am
    32   16   17 1
    33   16   44 1
    34   16   45 1
    35   17   22 1
    36   17   18 1
    37   18   19 1
    38   18   46 1
    39   18   47 1
    40   19   20 1
    41   19   48 1
    42   19   49 1
    43   20   21 1
    44   20   50 1
    45   20   68 1
    46   21   22 1
    47   21   51 1
    48   21   52 1
    49   22   53 1
    50   22   54 1
    51   23   24 2
    52   23   25 1
    53   25   26 1
    54   25   55 1
    55   25   56 1
    56   26   27 1
    57   26   57 1
    58   26   58 1
    59   27   31 1
    60   27   28 1
    61   27   59 1
    62   28   29 1
    63   28   60 1
    64   28   61 1
    65   29   30 1
    66   29   62 1
    67   29   63 1
    68   30   31 1
    69   30   64 1
    70   30   65 1
    71   31   66 1
    72   31   67 1
@<TRIPOS>MOLECULE
ZINC43525130
   68    71     0     0     0
SMALL
USER_CHARGES

@<TRIPOS>ATOM
      1 C1         -0.0187    1.5258    0.0104 C.3       1 <0>        -0.1646
      2 C2          0.0021   -0.0041    0.0020 C.3       1 <0>        -0.1255
      3 C3          0.7182   -0.4975   -1.2568 C.3       1 <0>        -0.1024
      4 H1          0.2457   -0.0654   -2.1389 H         1 <0>         0.1116
      5 C4          2.1896   -0.0799   -1.2067 C.3       1 <0>        -0.0076
      6 N1          3.0489   -1.2657   -1.2410 N.4       1 <0>        -0.3764
      7 C5          2.7955   -2.1199   -0.0783 C.3       1 <0>        -0.0128
      8 C6          1.3442   -2.6052   -0.0909 C.3       1 <0>        -0.1413
      9 C7          0.6373   -2.0280   -1.3278 C.3       1 <0>        -0.0958
     10 H2         -0.4036   -2.3502   -1.3566 H         1 <0>         0.1251
     11 C8          1.3944   -2.4951   -2.5780 C.3       1 <0>        -0.1291
     12 C9          2.8467   -2.0133   -2.4844 C.3       1 <0>         0.0188
     13 H3          3.0679   -1.3678   -3.3344 H         1 <0>         0.1487
     14 C10         3.7858   -3.2209   -2.5090 C.3       1 <0>         0.0944
     15 N2          5.1662   -2.7702   -2.3149 N.am      1 <0>        -0.7219
     16 C11         6.1722   -3.6670   -2.3003 C.2       1 <0>         0.5168
     17 O1          5.9345   -4.8478   -2.4479 O.2       1 <0>        -0.4895
     18 C12         7.5803   -3.2072   -2.1022 C.2       1 <0>         0.5167
     19 O2          7.8179   -2.0264   -1.9546 O.2       1 <0>        -0.4896
     20 N3          8.5863   -4.1040   -2.0876 N.am      1 <0>        -0.7216
     21 C13         9.9667   -3.6532   -1.8935 C.3       1 <0>         0.0945
     22 C14        10.9057   -4.8609   -1.9182 C.3       1 <0>         0.0193
     23 H4         10.8862   -5.3140   -2.9093 H         1 <0>         0.1476
     24 C15        12.3303   -4.4031   -1.5971 C.3       1 <0>        -0.1305
     25 C16        12.8129   -5.1337   -0.3372 C.3       1 <0>        -0.0966
     26 H5         13.8308   -4.8309   -0.0916 H         1 <0>         0.1236
     27 C17        11.8624   -4.7880    0.8167 C.3       1 <0>        -0.1414
     28 C18        10.4439   -5.2147    0.4324 C.3       1 <0>        -0.0018
     29 N4         10.4612   -5.8426   -0.9260 N.4       1 <0>        -0.3855
     30 C19        11.3202   -7.0288   -0.9535 C.3       1 <0>        -0.0055
     31 C20        12.7568   -6.6440   -0.6022 C.3       1 <0>        -0.1015
     32 H6         13.4167   -6.8938   -1.4330 H         1 <0>         0.1119
     33 C21        13.1975   -7.4014    0.6520 C.3       1 <0>        -0.1252
     34 C22        13.2605   -8.8994    0.3474 C.3       1 <0>        -0.1645
     35 H7          1.0039    1.9031    0.0027 H         1 <0>         0.0529
     36 H8         -0.5459    1.8868   -0.8726 H         1 <0>         0.0645
     37 H9         -0.5289    1.8773    0.9072 H         1 <0>         0.0694
     38 H10         0.5293   -0.3651    0.8851 H         1 <0>         0.0698
     39 H11        -1.0205   -0.3814    0.0098 H         1 <0>         0.0850
     40 H12         2.4148    0.5549   -2.0637 H         1 <0>         0.1335
     41 H13         2.3768    0.4759   -0.2879 H         1 <0>         0.1365
     42 H14         3.4647   -2.9798   -0.1086 H         1 <0>         0.1253
     43 H15         2.9794   -1.5527    0.8341 H         1 <0>         0.1331
     44 H16         1.3235   -3.6941   -0.1339 H         1 <0>         0.1014
     45 H17         0.8371   -2.2636    0.8115 H         1 <0>         0.1071
     46 H18         1.3720   -3.5835   -2.6333 H         1 <0>         0.1079
     47 H19         0.9268   -2.0726   -3.4674 H         1 <0>         0.1111
     48 H20         3.5128   -3.9099   -1.7098 H         1 <0>         0.1056
     49 H21         3.7009   -3.7276   -3.4703 H         1 <0>         0.1240
     50 H22         5.3561   -1.8263   -2.1969 H         1 <0>         0.4091
     51 H23         8.3964   -5.0478   -2.2056 H         1 <0>         0.4091
     52 H24        10.2397   -2.9643   -2.6928 H         1 <0>         0.1235
     53 H25        10.0516   -3.1465   -0.9322 H         1 <0>         0.1055
     54 H26        12.9879   -4.6425   -2.4327 H         1 <0>         0.1108
     55 H27        12.3372   -3.3274   -1.4208 H         1 <0>         0.1075
     56 H28        12.1724   -5.3189    1.7168 H         1 <0>         0.1071
     57 H29        11.8841   -3.7135    0.9984 H         1 <0>         0.1024
     58 H30        10.0774   -5.9439    1.1549 H         1 <0>         0.1313
     59 H31         9.7900   -4.3427    0.4378 H         1 <0>         0.1278
     60 H32        10.9546   -7.7570   -0.2295 H         1 <0>         0.1359
     61 H33        11.2968   -7.4693   -1.9503 H         1 <0>         0.1334
     62 H34        14.1828   -7.0515    0.9602 H         1 <0>         0.0848
     63 H35        12.4814   -7.2235    1.4543 H         1 <0>         0.0696
     64 H36        12.2752   -9.2492    0.0392 H         1 <0>         0.0529
     65 H37        13.9766   -9.0773   -0.4549 H         1 <0>         0.0645
     66 H38        13.5745   -9.4390    1.2409 H         1 <0>         0.0694
     67 H39         4.0110   -0.9640   -1.2027 H         1 <0>         0.4151
     68 H40         9.5232   -6.1312   -1.1605 H         1 <0>         0.4148
@<TRIPOS>BOND
     1    1    2 1
     2    1   35 1
     3    1   36 1
     4    1   37 1
     5    2    3 1
     6    2   38 1
     7    2   39 1
     8    3    4 1
     9    3    9 1
    10    3    5 1
    11    5    6 1
    12    5   40 1
    13    5   41 1
    14    6   12 1
    15    6    7 1
    16    6   67 1
    17    7    8 1
    18    7   42 1
    19    7   43 1
    20    8    9 1
    21    8   44 1
    22    8   45 1
    23    9   10 1
    24    9   11 1
    25   11   12 1
    26   11   46 1
    27   11   47 1
    28   12   13 1
    29   12   14 1
    30   14   15 1
    31   14   48 1
    32   14   49 1
    33   15   16 am
    34   15   50 1
    35   16   17 2
    36   16   18 1
    37   18   19 2
    38   18   20 am
    39   20   21 1
    40   20   51 1
    41   21   22 1
    42   21   52 1
    43   21   53 1
    44   22   23 1
    45   22   29 1
    46   22   24 1
    47   24   25 1
    48   24   54 1
    49   24   55 1
    50   25   26 1
    51   25   31 1
    52   25   27 1
    53   27   28 1
    54   27   56 1
    55   27   57 1
    56   28   29 1
    57   28   58 1
    58   28   59 1
    59   29   30 1
    60   29   68 1
    61   30   31 1
    62   30   60 1
    63   30   61 1
    64   31   32 1
    65   31   33 1
    66   33   34 1
    67   33   62 1
    68   33   63 1
    69   34   64 1
    70   34   65 1
    71   34   66 1
@<TRIPOS>MOLECULE
ZINC56524060
   56    56     0     0     0
SMALL
USER_CHARGES

@<TRIPOS>ATOM
      1 C1          0.1421    1.4277   -0.5189 C.3       1 <0>        -0.1824
      2 C2          0.0021   -0.0041    0.0020 C.3       1 <0>         0.0073
      3 H1          0.3439   -0.0495    1.0360 H         1 <0>         0.1639
      4 C3         -1.4432   -0.4251   -0.0683 C.2       1 <0>         0.5136
      5 O1         -1.8637   -0.9862   -1.0572 O.2       1 <0>        -0.4494
      6 N1         -2.2683   -0.1778    0.9683 N.am      1 <0>        -0.6760
      7 C4         -3.5609   -0.5543    0.9055 C.2       1 <0>         0.6908
      8 O2         -3.9824   -1.1169   -0.0860 O.2       1 <0>        -0.5171
      9 N2         -4.3860   -0.3070    1.9421 N.am      1 <0>        -0.7205
     10 C5         -5.7910   -0.7163    1.8737 C.3       1 <0>         0.1502
     11 C6         -6.3352   -0.9102    3.2905 C.3       1 <0>        -0.1649
     12 C7         -6.6032    0.3656    1.1591 C.3       1 <0>        -0.1694
     13 N3          0.8158   -0.9070   -0.8229 N.4       1 <0>        -0.3723
     14 C8          2.2236   -0.4981   -0.7505 C.3       1 <0>        -0.0124
     15 C9          3.0644   -1.3850   -1.6714 C.3       1 <0>        -0.1413
     16 C10         2.9316   -2.8442   -1.2264 C.3       1 <0>        -0.0969
     17 C11         1.4515   -3.2375   -1.2345 C.3       1 <0>        -0.1459
     18 C12         0.6706   -2.2819   -0.3298 C.3       1 <0>        -0.0168
     19 C13         3.7057   -3.7456   -2.1904 C.3       1 <0>        -0.1480
     20 C14         3.6765   -5.1863   -1.6762 C.3       1 <0>        -0.0158
     21 N4          4.4198   -6.0517   -2.6017 N.4       1 <0>        -0.3873
     22 C15         4.4941   -7.4106   -2.0487 C.3       1 <0>        -0.0496
     23 C16         3.7307   -6.0878   -3.8986 C.3       1 <0>        -0.0546
     24 H2          1.1875    1.7322   -0.4681 H         1 <0>         0.1034
     25 H3         -0.1997    1.4732   -1.5529 H         1 <0>         0.0944
     26 H4         -0.4617    2.0977    0.0931 H         1 <0>         0.1165
     27 H5         -1.9319    0.2712    1.7596 H         1 <0>         0.4183
     28 H6         -4.0495    0.1420    2.7333 H         1 <0>         0.4024
     29 H7         -5.8701   -1.6534    1.3227 H         1 <0>         0.0942
     30 H8         -6.2561    0.0269    3.8415 H         1 <0>         0.0662
     31 H9         -7.3805   -1.2148    3.2397 H         1 <0>         0.0842
     32 H10        -5.7565   -1.6810    3.7996 H         1 <0>         0.0638
     33 H11        -6.2155    0.5038    0.1498 H         1 <0>         0.0603
     34 H12        -7.6486    0.0611    1.1083 H         1 <0>         0.0768
     35 H13        -6.5241    1.3028    1.7102 H         1 <0>         0.0614
     36 H14         2.3161    0.5416   -1.0644 H         1 <0>         0.1432
     37 H15         2.5789   -0.6000    0.2750 H         1 <0>         0.1361
     38 H16         2.7101   -1.2836   -2.6972 H         1 <0>         0.0953
     39 H17         4.1096   -1.0809   -1.6149 H         1 <0>         0.1212
     40 H18         3.3329   -2.9561   -0.2192 H         1 <0>         0.1026
     41 H19         1.0638   -3.1745   -2.2513 H         1 <0>         0.0971
     42 H20         1.3439   -4.2575   -0.8657 H         1 <0>         0.1119
     43 H21         1.0589   -2.3458    0.6867 H         1 <0>         0.1337
     44 H22        -0.3836   -2.5592   -0.3331 H         1 <0>         0.1363
     45 H23         3.2450   -3.7026   -3.1773 H         1 <0>         0.0961
     46 H24         4.7388   -3.4043   -2.2565 H         1 <0>         0.1004
     47 H25         4.1372   -5.2293   -0.6893 H         1 <0>         0.1341
     48 H26         2.6434   -5.5276   -1.6101 H         1 <0>         0.1299
     49 H27         3.4863   -7.8035   -1.9138 H         1 <0>         0.1232
     50 H28         5.0456   -8.0527   -2.7354 H         1 <0>         0.1294
     51 H29         5.0054   -7.3838   -1.0864 H         1 <0>         0.1255
     52 H30         2.7229   -6.4808   -3.7637 H         1 <0>         0.1234
     53 H31         3.6755   -5.0795   -4.3089 H         1 <0>         0.1229
     54 H32         4.2822   -6.7299   -4.5853 H         1 <0>         0.1295
     55 H33         5.3526   -5.6879   -2.7266 H         1 <0>         0.4293
     56 H34         0.5027   -0.8596   -1.7809 H         1 <0>         0.4319
@<TRIPOS>BOND
     1    1    2 1
     2    1   24 1
     3    1   25 1
     4    1   26 1
     5    2    3 1
     6    2    4 1
     7    2   13 1
     8    4    5 2
     9    4    6 am
    10    6    7 am
    11    6   27 1
    12    7    8 2
    13    7    9 am
    14    9   10 1
    15    9   28 1
    16   10   11 1
    17   10   12 1
    18   10   29 1
    19   11   30 1
    20   11   31 1
    21   11   32 1
    22   12   33 1
    23   12   34 1
    24   12   35 1
    25   13   18 1
    26   13   14 1
    27   13   56 1
    28   14   15 1
    29   14   36 1
    30   14   37 1
    31   15   16 1
    32   15   38 1
    33   15   39 1
    34   16   17 1
    35   16   19 1
    36   16   40 1
    37   17   18 1
    38   17   41 1
    39   17   42 1
    40   18   43 1
    41   18   44 1
    42   19   20 1
    43   19   45 1
    44   19   46 1
    45   20   21 1
    46   20   47 1
    47   20   48 1
    48   21   22 1
    49   21   23 1
    50   21   55 1
    51   22   49 1
    52   22   50 1
    53   22   51 1
    54   23   52 1
    55   23   53 1
    56   23   54 1
@<TRIPOS>MOLECULE
ZINC65305706
   38    40     0     0     0
SMALL
USER_CHARGES

@<TRIPOS>ATOM
      1 C1         -0.0162    1.3438    0.0094 C.ar      1 <0>         0.0351
      2 C2          1.1577    2.1180    0.0024 C.ar      1 <0>         0.0567
      3 C3          2.3894    1.5703   -0.0128 C.ar      1 <0>        -0.1476
      4 C4          2.5325    0.1079   -0.0220 C.ar      1 <0>         0.3486
      5 N1          3.5686   -0.6799   -0.0365 N.pl3     1 <0>        -0.4902
      6 C5          3.0715   -2.0615   -0.0390 C.3       1 <0>         0.4811
      7 N2          1.6058   -1.9743   -0.0240 N.pl3     1 <0>        -0.4783
      8 C6          1.2899   -0.7116   -0.0141 C.ar      1 <0>         0.3383
      9 C7          0.0021   -0.0041    0.0020 C.ar      1 <0>        -0.1373
     10 N3          3.5215   -2.7557   -1.2481 N.am      1 <0>        -0.7258
     11 C8          3.4451   -4.0993   -1.3217 C.2       1 <0>         0.5303
     12 O1          3.0038   -4.7337   -0.3869 O.2       1 <0>        -0.4783
     13 C9          3.9080   -4.8134   -2.5654 C.3       1 <0>         0.1107
     14 N4          3.7226   -6.2568   -2.3973 N.am      1 <0>        -0.7353
     15 C10         4.0699   -7.1008   -3.3891 C.2       1 <0>         0.5226
     16 O2          4.5358   -6.6653   -4.4207 O.2       1 <0>        -0.5055
     17 C11         3.8792   -8.5857   -3.2162 C.3       1 <0>        -0.0467
     18 C12         4.3421   -9.2997   -4.4600 C.2       1 <0>        -0.1591
     19 C13         5.5718   -9.7864   -4.7571 C.2       1 <0>        -0.1290
     20 C14         5.7687  -10.4132   -5.9732 C.2       1 <0>        -0.1631
     21 C15         4.7263  -10.5228   -6.8327 C.2       1 <0>        -0.1546
     22 S1          3.4113   -9.7312   -5.9210 S.3       1 <0>         0.0495
     23 H1         -0.9705    1.8493    0.0259 H         1 <0>         0.2079
     24 H2          1.0690    3.1943    0.0090 H         1 <0>         0.2087
     25 H3          3.2653    2.2022   -0.0185 H         1 <0>         0.2107
     26 H4          3.4241   -2.5876    0.8482 H         1 <0>         0.2480
     27 H5         -0.9237   -0.5603    0.0082 H         1 <0>         0.2094
     28 H6          3.8745   -2.2483   -1.9957 H         1 <0>         0.4409
     29 H7          3.3255   -4.4693   -3.4200 H         1 <0>         0.1209
     30 H8          4.9633   -4.5999   -2.7354 H         1 <0>         0.1239
     31 H9          3.3500   -6.6052   -1.5723 H         1 <0>         0.4158
     32 H10         4.4617   -8.9297   -2.3616 H         1 <0>         0.1220
     33 H11         2.8239   -8.7991   -3.0463 H         1 <0>         0.1149
     34 H12         6.3857   -9.6855   -4.0544 H         1 <0>         0.1311
     35 H13         6.7388  -10.8095   -6.2349 H         1 <0>         0.1388
     36 H14         4.6977  -10.9752   -7.8130 H         1 <0>         0.1905
     37 H15         4.4987   -0.4047   -0.0446 H         1 <0>         0.4993
     38 H16         0.9865   -2.7208   -0.0223 H         1 <0>         0.4949
@<TRIPOS>BOND
     1    1    9 ar
     2    1    2 ar
     3    1   23 1
     4    2    3 ar
     5    2   24 1
     6    3    4 ar
     7    3   25 1
     8    4    8 ar
     9    4    5 2
    10    5    6 1
    11    5   37 1
    12    6    7 1
    13    6   10 1
    14    6   26 1
    15    7    8 2
    16    7   38 1
    17    8    9 ar
    18    9   27 1
    19   10   11 am
    20   10   28 1
    21   11   12 2
    22   11   13 1
    23   13   14 1
    24   13   29 1
    25   13   30 1
    26   14   15 am
    27   14   31 1
    28   15   16 2
    29   15   17 1
    30   17   18 1
    31   17   32 1
    32   17   33 1
    33   18   22 1
    34   18   19 2
    35   19   20 1
    36   19   34 1
    37   20   21 2
    38   20   35 1
    39   21   22 1
    40   21   36 1
@<TRIPOS>MOLECULE
ZINC08881025
   66    69     0     0     0
SMALL
USER_CHARGES
methyl 8-[4-(methyl-phenyl-sulfamoyl)benzoyl]amino-4-propyl-7-thia-4-azabicyclo[4.3.0]nona-8,10-diene-9-carboxylate
@<TRIPOS>ATOM
      1 C1          1.8524    6.9099   -6.3066 C.3       1 <0>        -0.1562
      2 C2          1.3737    6.1639   -5.0595 C.3       1 <0>        -0.1510
      3 C3          1.9719    4.7558   -5.0465 C.3       1 <0>        -0.0051
      4 C4          0.0446    3.9797   -3.8022 C.3       1 <0>         0.0010
      5 C5         -0.4069    2.9312   -2.7814 C.3       1 <0>        -0.0921
      6 C6          0.3086    3.2108   -1.4649 C.2       1 <0>        -0.0349
      7 C7          1.4088    3.9966   -1.4443 C.2       1 <0>        -0.3153
      8 S1          1.8946    4.0493    0.2555 S.3       1 <0>         0.3449
      9 C8          0.6540    3.0461    0.9326 C.2       1 <0>         0.1090
     10 C9         -0.1045    2.6880   -0.1759 C.2       1 <0>        -0.2145
     11 C10        -1.2782    1.8221   -0.0469 C.2       1 <0>         0.5191
     12 O1         -1.1571    0.6155   -0.1418 O.2       1 <0>        -0.4796
     13 O2         -2.4945    2.3627    0.1715 O.3       1 <0>        -0.3505
     14 C11        -3.6137    1.4445    0.2828 C.3       1 <0>         0.0291
     15 N1          0.4653    2.6868    2.2567 N.am      1 <0>        -0.6154
     16 C12         1.3123    3.1357    3.2041 C.2       1 <0>         0.5630
     17 O3          2.2419    3.8560    2.8963 O.2       1 <0>        -0.4792
     18 C13         1.1109    2.7523    4.6171 C.ar      1 <0>        -0.0917
     19 C14         0.0409    1.9299    4.9747 C.ar      1 <0>        -0.1035
     20 C15        -0.1382    1.5716    6.2948 C.ar      1 <0>        -0.0243
     21 C16         0.7332    2.0342    7.2649 C.ar      1 <0>        -0.6436
     22 C17         1.7923    2.8542    6.9180 C.ar      1 <0>        -0.0170
     23 C18         1.9863    3.2155    5.6009 C.ar      1 <0>        -0.0661
     24 S2          0.4927    1.5775    8.9496 S.o2      1 <0>         2.6794
     25 O4         -0.2457    0.3635    8.9398 O.2       1 <0>        -0.9375
     26 O5          1.7575    1.6949    9.5867 O.2       1 <0>        -0.9316
     27 N2         -0.4891    2.7232    9.6321 N.pl3     1 <0>        -0.9461
     28 C19        -1.9440    2.6148    9.4984 C.3       1 <0>         0.0871
     29 C20         0.0698    3.7928   10.3351 C.ar      1 <0>         0.1251
     30 C21         0.8534    3.5549   11.4572 C.ar      1 <0>        -0.1025
     31 C22         1.4085    4.6146   12.1472 C.ar      1 <0>        -0.1036
     32 C23         1.1763    5.9119   11.7285 C.ar      1 <0>        -0.1116
     33 C24         0.3924    6.1526   10.6150 C.ar      1 <0>        -0.1108
     34 C25        -0.1614    5.0973    9.9173 C.ar      1 <0>        -0.1188
     35 C26         2.0491    4.6601   -2.6233 C.3       1 <0>         0.1052
     36 H1          1.5317    6.3707   -7.1980 H         1 <0>         0.0671
     37 H2          1.4262    7.9131   -6.3158 H         1 <0>         0.0772
     38 H3          2.9402    6.9774   -6.2944 H         1 <0>         0.0675
     39 H4          0.2858    6.0965   -5.0716 H         1 <0>         0.0867
     40 H5          1.6943    6.7031   -4.1681 H         1 <0>         0.0858
     41 H6          3.0597    4.8232   -5.0344 H         1 <0>         0.1332
     42 H7          1.6512    4.2166   -5.9379 H         1 <0>         0.1333
     43 H8         -0.3479    4.9554   -3.5157 H         1 <0>         0.1366
     44 H9         -0.3379    3.7111   -4.7868 H         1 <0>         0.1391
     45 H10        -0.1457    1.9348   -3.1377 H         1 <0>         0.1098
     46 H11        -1.4850    2.9996   -2.6360 H         1 <0>         0.1234
     47 H12        -3.7085    0.8737   -0.6410 H         1 <0>         0.0692
     48 H13        -3.4426    0.7623    1.1155 H         1 <0>         0.0688
     49 H14        -4.5302    2.0081    0.4573 H         1 <0>         0.1110
     50 H15        -0.2765    2.1121    2.5023 H         1 <0>         0.4264
     51 H16        -0.6426    1.5718    4.2191 H         1 <0>         0.1348
     52 H17        -0.9628    0.9315    6.5722 H         1 <0>         0.1542
     53 H18         2.4689    3.2118    7.6801 H         1 <0>         0.1567
     54 H19         2.8139    3.8550    5.3314 H         1 <0>         0.1545
     55 H20        -2.3435    2.0380   10.3326 H         1 <0>         0.0734
     56 H21        -2.3845    3.6118    9.5020 H         1 <0>         0.0819
     57 H22        -2.1864    2.1138    8.5612 H         1 <0>         0.0743
     58 H23         1.0314    2.5421   11.7873 H         1 <0>         0.1303
     59 H24         2.0211    4.4301   13.0173 H         1 <0>         0.1324
     60 H25         1.6085    6.7390   12.2721 H         1 <0>         0.1288
     61 H26         0.2134    7.1670   10.2905 H         1 <0>         0.1287
     62 H27        -0.7738    5.2860    9.0479 H         1 <0>         0.1256
     63 H28         1.8158    5.7248   -2.6177 H         1 <0>         0.1467
     64 H29         3.1292    4.5196   -2.5826 H         1 <0>         0.1437
     65 N3          1.5209    4.0139   -3.8494 N.4       1 <0>        -0.3950
     66 H30         1.8760    3.0518   -3.8997 H         1 <0>         0.4338
@<TRIPOS>BOND
     1    1    2 1
     2    1   36 1
     3    1   37 1
     4    1   38 1
     5    2    3 1
     6    2   39 1
     7    2   40 1
     8    3   41 1
     9    3   42 1
    10    3   65 1
    11    4    5 1
    12    4   43 1
    13    4   44 1
    14    4   65 1
    15    5    6 1
    16    5   45 1
    17    5   46 1
    18    6   10 1
    19    6    7 2
    20    7    8 1
    21    7   35 1
    22    8    9 1
    23    9   10 2
    24    9   15 1
    25   10   11 1
    26   11   12 2
    27   11   13 1
    28   13   14 1
    29   14   47 1
    30   14   48 1
    31   14   49 1
    32   15   16 am
    33   15   50 1
    34   16   17 2
    35   16   18 1
    36   18   23 ar
    37   18   19 ar
    38   19   20 ar
    39   19   51 1
    40   20   21 ar
    41   20   52 1
    42   21   22 ar
    43   21   24 1
    44   22   23 ar
    45   22   53 1
    46   23   54 1
    47   24   25 2
    48   24   26 2
    49   24   27 1
    50   27   28 1
    51   27   29 1
    52   28   55 1
    53   28   56 1
    54   28   57 1
    55   29   34 ar
    56   29   30 ar
    57   30   31 ar
    58   30   58 1
    59   31   32 ar
    60   31   59 1
    61   32   33 ar
    62   32   60 1
    63   33   34 ar
    64   33   61 1
    65   34   62 1
    66   35   63 1
    67   35   64 1
    68   35   65 1
    69   65   66 1
@<TRIPOS>MOLECULE
ZINC19901842
   79    83     0     0     0
SMALL
USER_CHARGES
2-[4-[(2S)-3-(2-tert-butyl-4-methyl-phenoxy)-2-hydroxy-propyl]piperazin-1-yl]ethylBLAHdione
@<TRIPOS>ATOM
      1 C1          3.0833   -4.4198   -5.7396 C.3       1 <0>        -0.1158
      2 C2          2.4284   -3.7517   -4.5583 C.ar      1 <0>        -0.1144
      3 C3          2.4707   -2.3751   -4.4328 C.ar      1 <0>        -0.0870
      4 C4          1.8715   -1.7603   -3.3508 C.ar      1 <0>        -0.2041
      5 C5          1.2264   -2.5251   -2.3894 C.ar      1 <0>         0.1236
      6 C6          1.1900   -3.9060   -2.5147 C.ar      1 <0>        -0.0925
      7 C7          1.7867   -4.5159   -3.6015 C.ar      1 <0>        -0.0855
      8 C8          0.4956   -4.7401   -1.4692 C.3       1 <0>        -0.0171
      9 C9          0.6010   -6.2197   -1.8444 C.3       1 <0>        -0.1496
     10 C10         1.1592   -4.5102   -0.1099 C.3       1 <0>        -0.1416
     11 C11        -0.9784   -4.3374   -1.3918 C.3       1 <0>        -0.1388
     12 O1          0.6361   -1.9225   -1.3238 O.3       1 <0>        -0.2939
     13 C12         0.7182   -0.4975   -1.2568 C.3       1 <0>         0.0601
     14 C13         0.0021   -0.0041    0.0020 C.3       1 <0>         0.1257
     15 H1         -1.0151   -0.4173    0.0700 H         1 <0>         0.0625
     16 C14        -0.0187    1.5258    0.0104 C.3       1 <0>         0.0230
     17 N1         -0.7063    1.9995    1.2190 N.3       1 <0>        -0.5372
     18 C15        -2.1294    1.6339    1.1928 C.3       1 <0>         0.0162
     19 C16        -2.7906    2.0741    2.5011 C.3       1 <0>        -0.0045
     20 N2         -2.6255    3.5250    2.6664 N.4       1 <0>        -0.3961
     21 C17        -1.2024    3.8906    2.6926 C.3       1 <0>         0.0023
     22 C18        -0.5412    3.4504    1.3844 C.3       1 <0>         0.0279
     23 C19        -3.3131    3.9987    3.8750 C.3       1 <0>        -0.0202
     24 C20        -4.8235    3.8248    3.7038 C.3       1 <0>         0.0704
     25 N3         -5.5092    4.2972    4.9091 N.am      1 <0>        -0.5590
     26 C21        -5.7457    3.4227    5.9054 C.2       1 <0>         0.5779
     27 O2         -5.3901    2.2653    5.7912 O.2       1 <0>        -0.4913
     28 C22        -6.4271    3.8606    7.1325 C.ar      1 <0>        -0.1795
     29 C23        -6.6870    2.9948    8.1846 C.ar      1 <0>         0.0106
     30 C24        -7.3388    3.4550    9.3227 C.ar      1 <0>        -0.1432
     31 C25        -7.7395    4.7549    9.4415 C.ar      1 <0>        -0.0321
     32 C26        -7.4951    5.6647    8.3979 C.ar      1 <0>        -0.0811
     33 C27        -6.8345    5.2099    7.2376 C.ar      1 <0>         0.0148
     34 C28        -6.5750    6.0998    6.1706 C.ar      1 <0>        -0.1795
     35 C29        -6.9791    7.4219    6.2832 C.ar      1 <0>         0.0103
     36 C30        -7.6289    7.8580    7.4319 C.ar      1 <0>        -0.1433
     37 C31        -7.8878    7.0125    8.4722 C.ar      1 <0>        -0.0320
     38 C32        -5.8846    5.5886    4.9774 C.2       1 <0>         0.5778
     39 O3         -5.6509    6.3363    4.0472 O.2       1 <0>        -0.4919
     40 O4          0.6932   -0.4774    1.1597 O.3       1 <0>        -0.5746
     41 H2          3.5385   -3.6558   -6.3870 H         1 <0>         0.0651
     42 H3          2.3275   -4.9802   -6.3094 H         1 <0>         0.0696
     43 H4          3.8619   -5.1110   -5.3847 H         1 <0>         0.0700
     44 H5          2.9729   -1.7803   -5.1814 H         1 <0>         0.1238
     45 H6          1.9054   -0.6853   -3.2529 H         1 <0>         0.1231
     46 H7          1.7553   -5.5908   -3.7015 H         1 <0>         0.1344
     47 H8          0.0941   -6.8285   -1.0812 H         1 <0>         0.0602
     48 H9          1.6607   -6.5092   -1.9000 H         1 <0>         0.0593
     49 H10         0.1239   -6.3850   -2.8217 H         1 <0>         0.0585
     50 H11         0.6523   -5.1191    0.6532 H         1 <0>         0.0539
     51 H12         1.0834   -3.4465    0.1599 H         1 <0>         0.0733
     52 H13         2.2189   -4.7998   -0.1656 H         1 <0>         0.0505
     53 H14        -1.4852   -4.9463   -0.6286 H         1 <0>         0.0553
     54 H15        -1.4555   -4.5027   -2.3691 H         1 <0>         0.0508
     55 H16        -1.0542   -3.2737   -1.1220 H         1 <0>         0.0648
     56 H17         1.7744   -0.1924   -1.2212 H         1 <0>         0.0724
     57 H18         0.2400   -0.0605   -2.1458 H         1 <0>         0.0746
     58 H19         1.0133    1.9066    0.0026 H         1 <0>         0.1018
     59 H20        -0.5507    1.8902   -0.8808 H         1 <0>         0.0584
     60 H21        -2.6211    2.1346    0.3457 H         1 <0>         0.0655
     61 H22        -2.2260    0.5439    1.0806 H         1 <0>         0.1269
     62 H23        -3.8621    1.8270    2.4717 H         1 <0>         0.1379
     63 H24        -2.3169    1.5516    3.3453 H         1 <0>         0.1404
     64 H25        -1.1059    4.9806    2.8047 H         1 <0>         0.1385
     65 H26        -0.7107    3.3899    3.5397 H         1 <0>         0.1379
     66 H27         0.5305    3.6965    1.4132 H         1 <0>         0.1271
     67 H28        -1.0146    3.9720    0.5395 H         1 <0>         0.0643
     68 H29        -2.9729    3.4149    4.7430 H         1 <0>         0.1351
     69 H30        -3.0823    5.0622    4.0352 H         1 <0>         0.1377
     70 H31        -5.1637    4.4086    2.8358 H         1 <0>         0.1207
     71 H32        -5.0543    2.7613    3.5436 H         1 <0>         0.1201
     72 H33        -6.3820    1.9609    8.1194 H         1 <0>         0.1482
     73 H34        -7.5334    2.7676   10.1327 H         1 <0>         0.1456
     74 H35        -8.2440    5.0845   10.3377 H         1 <0>         0.1473
     75 H36        -6.7878    8.1142    5.4766 H         1 <0>         0.1480
     76 H37        -7.9368    8.8908    7.5031 H         1 <0>         0.1455
     77 H38        -8.3947    7.3792    9.3525 H         1 <0>         0.1473
     78 H39         0.3233   -0.2221    2.1637 H         1 <0>         0.4080
     79 H40        -3.0876    4.0205    1.7999 H         1 <0>         0.4404
@<TRIPOS>BOND
     1    1    2 1
     2    1   41 1
     3    1   42 1
     4    1   43 1
     5    2    7 ar
     6    2    3 ar
     7    3    4 ar
     8    3   44 1
     9    4    5 ar
    10    4   45 1
    11    5    6 ar
    12    5   12 1
    13    6    7 ar
    14    6    8 1
    15    7   46 1
    16    8    9 1
    17    8   10 1
    18    8   11 1
    19    9   47 1
    20    9   48 1
    21    9   49 1
    22   10   50 1
    23   10   51 1
    24   10   52 1
    25   11   53 1
    26   11   54 1
    27   11   55 1
    28   12   13 1
    29   13   14 1
    30   13   56 1
    31   13   57 1
    32   14   15 1
    33   14   16 1
    34   14   40 1
    35   16   17 1
    36   16   58 1
    37   16   59 1
    38   17   22 1
    39   17   18 1
    40   18   19 1
    41   18   60 1
    42   18   61 1
    43   19   20 1
    44   19   62 1
    45   19   63 1
    46   20   21 1
    47   20   23 1
    48   20   79 1
    49   21   22 1
    50   21   64 1
    51   21   65 1
    52   22   66 1
    53   22   67 1
    54   23   24 1
    55   23   68 1
    56   23   69 1
    57   24   25 1
    58   24   70 1
    59   24   71 1
    60   25   38 am
    61   25   26 am
    62   26   27 2
    63   26   28 1
    64   28   33 ar
    65   28   29 ar
    66   29   30 ar
    67   29   72 1
    68   30   31 ar
    69   30   73 1
    70   31   32 ar
    71   31   74 1
    72   32   37 ar
    73   32   33 ar
    74   33   34 ar
    75   34   35 ar
    76   34   38 1
    77   35   36 ar
    78   35   75 1
    79   36   37 ar
    80   36   76 1
    81   37   77 1
    82   38   39 2
    83   40   78 1
@<TRIPOS>MOLECULE
ZINC34759226
   72    75     0     0     0
SMALL
USER_CHARGES

@<TRIPOS>ATOM
      1 C1          7.1093    0.8152    0.3952 C.3       1 <0>        -0.1535
      2 C2          6.2728    1.6461   -0.5799 C.3       1 <0>        -0.0762
      3 C3          5.8312    0.7775   -1.7295 C.ar      1 <0>        -0.0485
      4 C4          6.5823    0.7291   -2.8878 C.ar      1 <0>        -0.0975
      5 C5          6.1778   -0.0676   -3.9429 C.ar      1 <0>        -0.0858
      6 C6          5.0208   -0.8186   -3.8423 C.ar      1 <0>        -0.1075
      7 C7          4.2656   -0.7745   -2.6870 C.ar      1 <0>        -0.0960
      8 C8          4.6720    0.0207   -1.6234 C.ar      1 <0>         0.0781
      9 N1          3.9111    0.0636   -0.4483 N.am      1 <0>        -0.4825
     10 C9          4.1519   -0.8296    0.5397 C.2       1 <0>         0.5434
     11 O1          5.0206   -1.6751    0.4297 O.2       1 <0>        -0.4708
     12 C10         3.3239   -0.7386    1.7510 C.ar      1 <0>        -0.1878
     13 C11         3.4918   -1.6100    2.8254 C.ar      1 <0>        -0.0334
     14 C12         2.6885   -1.4799    3.9369 C.ar      1 <0>        -0.1263
     15 C13         1.7160   -0.4899    3.9936 C.ar      1 <0>        -0.0659
     16 C14         1.5337    0.3808    2.9429 C.ar      1 <0>        -0.1259
     17 C15         2.3358    0.2695    1.8052 C.ar      1 <0>         0.1349
     18 N2          2.1907    1.1066    0.7478 N.2       1 <0>        -0.5292
     19 C16         2.9401    1.0062   -0.3077 C.2       1 <0>         0.3929
     20 C17         2.7193    1.9795   -1.4369 C.3       1 <0>         0.1968
     21 H1          3.3477    1.7026   -2.2834 H         1 <0>         0.1427
     22 C18         1.2494    1.9447   -1.8601 C.3       1 <0>        -0.1558
     23 N3          3.0675    3.3311   -0.9918 N.am      1 <0>        -0.6038
     24 C19         2.4488    3.8873    0.2141 C.3       1 <0>         0.0806
     25 C20         3.3809    3.6765    1.4090 C.3       1 <0>        -0.0420
     26 N4          2.7075    4.1154    2.6386 N.4       1 <0>        -0.3803
     27 C21         3.5535    3.8033    3.7983 C.3       1 <0>        -0.0484
     28 C22         2.4742    5.5646    2.5786 C.3       1 <0>        -0.0586
     29 C23         3.9570    4.0629   -1.6916 C.2       1 <0>         0.7051
     30 O2          4.4704    3.6013   -2.6925 O.2       1 <0>        -0.5226
     31 N5          4.2773    5.3063   -1.2821 N.am      1 <0>        -0.6824
     32 C24         5.1146    6.1075   -2.0667 C.ar      1 <0>         0.2069
     33 C25         5.9869    7.0031   -1.4624 C.ar      1 <0>        -0.1470
     34 C26         6.8123    7.7920   -2.2395 C.ar      1 <0>        -0.0299
     35 C27         6.7706    7.6908   -3.6179 C.ar      1 <0>        -0.0588
     36 C28         5.9028    6.8002   -4.2228 C.ar      1 <0>        -0.0284
     37 C29         5.0789    6.0044   -3.4511 C.ar      1 <0>        -0.1171
     38 N6          7.6566    8.5378   -4.4478 N.pl3     1 <0>         0.0302
     39 O3          8.4156    9.3171   -3.9203 O.2       1 <0>        -0.1532
     40 O4          7.6212    8.4503   -5.6531 O.3       1 <0>        -0.1498
     41 H2          6.4812    0.0507    0.8526 H         1 <0>         0.0570
     42 H3          7.9281    0.3382   -0.1435 H         1 <0>         0.0668
     43 H4          7.5144    1.4646    1.1712 H         1 <0>         0.0578
     44 H5          5.3968    2.0389   -0.0638 H         1 <0>         0.0484
     45 H6          6.8724    2.4736   -0.9592 H         1 <0>         0.0779
     46 H7          7.4863    1.3144   -2.9694 H         1 <0>         0.1317
     47 H8          6.7664   -0.1033   -4.8477 H         1 <0>         0.1354
     48 H9          4.7075   -1.4400   -4.6682 H         1 <0>         0.1374
     49 H10         3.3618   -1.3606   -2.6093 H         1 <0>         0.1277
     50 H11         4.2461   -2.3820    2.7868 H         1 <0>         0.1433
     51 H12         2.8157   -2.1538    4.7712 H         1 <0>         0.1411
     52 H13         1.0950   -0.4021    4.8728 H         1 <0>         0.1403
     53 H14         0.7740    1.1464    2.9984 H         1 <0>         0.1368
     54 H15         1.1067    2.5847   -2.7308 H         1 <0>         0.0822
     55 H16         0.9675    0.9221   -2.1107 H         1 <0>         0.0807
     56 H17         0.6267    2.3027   -1.0402 H         1 <0>         0.0777
     57 H18         2.2736    4.9539    0.0737 H         1 <0>         0.0989
     58 H19         1.4998    3.3846    0.4005 H         1 <0>         0.1326
     59 H20         3.6336    2.6194    1.4907 H         1 <0>         0.1332
     60 H21         4.2918    4.2579    1.2663 H         1 <0>         0.1258
     61 H22         4.5077    4.3213    3.7019 H         1 <0>         0.1230
     62 H23         3.0538    4.1290    4.7107 H         1 <0>         0.1317
     63 H24         3.7266    2.7281    3.8429 H         1 <0>         0.1215
     64 H25         1.8465    5.7962    1.7181 H         1 <0>         0.1247
     65 H26         1.9745    5.8902    3.4910 H         1 <0>         0.1328
     66 H27         3.4284    6.0825    2.4822 H         1 <0>         0.1239
     67 H28         3.9275    5.6460   -0.4436 H         1 <0>         0.4035
     68 H29         6.0196    7.0829   -0.3858 H         1 <0>         0.1460
     69 H30         7.4907    8.4890   -1.7700 H         1 <0>         0.1609
     70 H31         5.8723    6.7237   -5.2997 H         1 <0>         0.1611
     71 H32         4.4044    5.3059   -3.9240 H         1 <0>         0.1604
     72 H33         1.8242    3.6360    2.7279 H         1 <0>         0.4310
@<TRIPOS>BOND
     1    1    2 1
     2    1   41 1
     3    1   42 1
     4    1   43 1
     5    2    3 1
     6    2   44 1
     7    2   45 1
     8    3    8 ar
     9    3    4 ar
    10    4    5 ar
    11    4   46 1
    12    5    6 ar
    13    5   47 1
    14    6    7 ar
    15    6   48 1
    16    7    8 ar
    17    7   49 1
    18    8    9 1
    19    9   19 1
    20    9   10 am
    21   10   11 2
    22   10   12 1
    23   12   17 ar
    24   12   13 ar
    25   13   14 ar
    26   13   50 1
    27   14   15 ar
    28   14   51 1
    29   15   16 ar
    30   15   52 1
    31   16   17 ar
    32   16   53 1
    33   17   18 1
    34   18   19 2
    35   19   20 1
    36   20   21 1
    37   20   22 1
    38   20   23 1
    39   22   54 1
    40   22   55 1
    41   22   56 1
    42   23   24 1
    43   23   29 am
    44   24   25 1
    45   24   57 1
    46   24   58 1
    47   25   26 1
    48   25   59 1
    49   25   60 1
    50   26   27 1
    51   26   28 1
    52   26   72 1
    53   27   61 1
    54   27   62 1
    55   27   63 1
    56   28   64 1
    57   28   65 1
    58   28   66 1
    59   29   30 2
    60   29   31 am
    61   31   32 1
    62   31   67 1
    63   32   37 ar
    64   32   33 ar
    65   33   34 ar
    66   33   68 1
    67   34   35 ar
    68   34   69 1
    69   35   36 ar
    70   35   38 1
    71   36   37 ar
    72   36   70 1
    73   37   71 1
    74   38   39 2
    75   38   40 1
@<TRIPOS>MOLECULE
ZINC20490492
   71    75     0     0     0
SMALL
USER_CHARGES

@<TRIPOS>ATOM
      1 C1          0.0012    1.4977    0.0252 C.3       1 <0>        -0.1481
      2 C2          0.0137   -0.0322    0.0097 C.3       1 <0>        -0.0919
      3 C3         -1.4029   -0.5462    0.0186 C.ar      1 <0>        -0.0495
      4 C4         -2.0399   -0.7876    1.2235 C.ar      1 <0>        -0.1273
      5 C5         -3.3357   -1.2584    1.2402 C.ar      1 <0>        -0.0508
      6 C6         -4.0068   -1.4915    0.0350 C.ar      1 <0>        -0.0877
      7 C7         -3.3560   -1.2446   -1.1784 C.ar      1 <0>        -0.0801
      8 C8         -2.0618   -0.7690   -1.1780 C.ar      1 <0>        -0.1268
      9 C9         -5.3890   -1.9941    0.0437 C.2       1 <0>         0.2488
     10 C10        -6.0776   -2.2392   -1.2691 C.3       1 <0>        -0.1498
     11 C11        -7.0379   -3.4300   -1.1777 C.3       1 <0>         0.2113
     12 H1         -7.7442   -3.3981   -2.0072 H         1 <0>         0.1340
     13 N1         -7.7622   -3.3326    0.0940 N.pl3     1 <0>        -0.3858
     14 C12        -7.2081   -2.7520    1.2017 C.2       1 <0>         0.3094
     15 C13        -8.1470   -2.8424    2.2205 C.2       1 <0>        -0.2487
     16 C14        -9.2811   -3.4893    1.6769 C.2       1 <0>         0.0760
     17 N2         -9.0395   -3.7695    0.4220 N.2       1 <0>        -0.2561
     18 C15        -7.9918   -2.3593    3.5996 C.2       1 <0>         0.5946
     19 O1         -6.9577   -1.8168    3.9414 O.2       1 <0>        -0.5069
     20 N3         -8.9949   -2.5170    4.4858 N.am      1 <0>        -0.6707
     21 C16        -8.8123   -2.1452    5.8236 C.ar      1 <0>         0.1129
     22 C17        -8.0350   -1.0381    6.1370 C.ar      1 <0>        -0.0782
     23 C18        -7.8553   -0.6721    7.4564 C.ar      1 <0>        -0.1337
     24 C19        -8.4508   -1.4106    8.4686 C.ar      1 <0>         0.1155
     25 C20        -9.2274   -2.5168    8.1563 C.ar      1 <0>        -0.1909
     26 C21        -9.4130   -2.8803    6.8371 C.ar      1 <0>        -0.1047
     27 O2         -8.2727   -1.0502    9.7675 O.3       1 <0>        -0.3167
     28 C22        -8.9149   -1.8554   10.7581 C.3       1 <0>         0.0543
     29 C23        -8.6017   -1.2995   12.1487 C.3       1 <0>        -0.1532
     30 N4         -5.9706   -2.2159    1.1934 N.2       1 <0>        -0.4324
     31 C24        -6.2573   -4.7183   -1.2229 C.ar      1 <0>        -0.0993
     32 C25        -5.3113   -4.9881   -0.2510 C.ar      1 <0>        -0.1276
     33 C26        -4.5936   -6.1686   -0.2896 C.ar      1 <0>        -0.0772
     34 C27        -4.8181   -7.0851   -1.3005 C.ar      1 <0>        -0.1835
     35 C28        -5.7643   -6.8211   -2.2772 C.ar      1 <0>         0.1130
     36 C29        -6.4915   -5.6349   -2.2348 C.ar      1 <0>         0.0911
     37 O3         -7.4254   -5.3737   -3.1882 O.3       1 <0>        -0.3208
     38 C30        -6.9821   -4.6853   -4.3593 C.3       1 <0>         0.0309
     39 O4         -5.9863   -7.7214   -3.2720 O.3       1 <0>        -0.3041
     40 C31        -5.2076   -8.9193   -3.2486 C.3       1 <0>         0.0234
     41 H2          1.0258    1.8695    0.0187 H         1 <0>         0.0607
     42 H3         -0.5243    1.8656   -0.8560 H         1 <0>         0.0566
     43 H4         -0.5067    1.8479    0.9238 H         1 <0>         0.0577
     44 H5          0.5216   -0.3823   -0.8889 H         1 <0>         0.0750
     45 H6          0.5393   -0.4001    0.8909 H         1 <0>         0.0758
     46 H7         -1.5205   -0.6071    2.1530 H         1 <0>         0.1294
     47 H8         -3.8312   -1.4469    2.1811 H         1 <0>         0.1437
     48 H9         -3.8672   -1.4224   -2.1130 H         1 <0>         0.1288
     49 H10        -1.5595   -0.5737   -2.1139 H         1 <0>         0.1288
     50 H11        -6.6392   -1.3482   -1.5497 H         1 <0>         0.1176
     51 H12       -10.1937   -3.7146    2.2087 H         1 <0>         0.1959
     52 H13        -9.8433   -2.8880    4.1970 H         1 <0>         0.4076
     53 H14        -7.5708   -0.4635    5.3491 H         1 <0>         0.1465
     54 H15        -7.2508    0.1889    7.7003 H         1 <0>         0.1334
     55 H16        -9.6904   -3.0914    8.9449 H         1 <0>         0.1304
     56 H17       -10.0213   -3.7389    6.5939 H         1 <0>         0.1281
     57 H18        -9.9926   -1.8410   10.5953 H         1 <0>         0.0615
     58 H19        -8.5501   -2.8800   10.6858 H         1 <0>         0.0613
     59 H20        -9.0916   -1.9137   12.9043 H         1 <0>         0.0782
     60 H21        -7.5241   -1.3139   12.3115 H         1 <0>         0.0664
     61 H22        -8.9665   -0.2749   12.2210 H         1 <0>         0.0664
     62 H23        -5.3275   -2.4430   -2.0333 H         1 <0>         0.1239
     63 H24        -5.1325   -4.2745    0.5397 H         1 <0>         0.1281
     64 H25        -3.8556   -6.3756    0.4712 H         1 <0>         0.1337
     65 H26        -4.2555   -8.0065   -1.3288 H         1 <0>         0.1382
     66 H27        -6.5721   -3.7155   -4.0774 H         1 <0>         0.0439
     67 H28        -6.2120   -5.2744   -4.8574 H         1 <0>         0.0514
     68 H29        -7.8239   -4.5410   -5.0365 H         1 <0>         0.0989
     69 H30        -5.4832   -9.5484   -4.0949 H         1 <0>         0.1046
     70 H31        -4.1494   -8.6661   -3.3135 H         1 <0>         0.0573
     71 H32        -5.3961   -9.4571   -2.3194 H         1 <0>         0.0578
@<TRIPOS>BOND
     1    1    2 1
     2    1   41 1
     3    1   42 1
     4    1   43 1
     5    2    3 1
     6    2   44 1
     7    2   45 1
     8    3    8 ar
     9    3    4 ar
    10    4    5 ar
    11    4   46 1
    12    5    6 ar
    13    5   47 1
    14    6    7 ar
    15    6    9 1
    16    7    8 ar
    17    7   48 1
    18    8   49 1
    19    9   30 2
    20    9   10 1
    21   10   11 1
    22   10   50 1
    23   10   62 1
    24   11   12 1
    25   11   13 1
    26   11   31 1
    27   13   17 1
    28   13   14 1
    29   14   15 2
    30   14   30 1
    31   15   16 1
    32   15   18 1
    33   16   17 2
    34   16   51 1
    35   18   19 2
    36   18   20 am
    37   20   21 1
    38   20   52 1
    39   21   26 ar
    40   21   22 ar
    41   22   23 ar
    42   22   53 1
    43   23   24 ar
    44   23   54 1
    45   24   25 ar
    46   24   27 1
    47   25   26 ar
    48   25   55 1
    49   26   56 1
    50   27   28 1
    51   28   29 1
    52   28   57 1
    53   28   58 1
    54   29   59 1
    55   29   60 1
    56   29   61 1
    57   31   36 ar
    58   31   32 ar
    59   32   33 ar
    60   32   63 1
    61   33   34 ar
    62   33   64 1
    63   34   35 ar
    64   34   65 1
    65   35   36 ar
    66   35   39 1
    67   36   37 1
    68   37   38 1
    69   38   66 1
    70   38   67 1
    71   38   68 1
    72   39   40 1
    73   40   69 1
    74   40   70 1
    75   40   71 1
@<TRIPOS>MOLECULE
ZINC01026735
   70    74     0     0     0
SMALL
USER_CHARGES

@<TRIPOS>ATOM
      1 C1         -0.0187    1.5258    0.0104 C.3       1 <0>        -0.1560
      2 C2          0.0021   -0.0041    0.0020 C.3       1 <0>         0.0463
      3 O1         -1.3386   -0.4987    0.0122 O.3       1 <0>        -0.3223
      4 C3         -1.4983   -1.8477    0.0064 C.ar      1 <0>         0.1636
      5 C4         -0.3837   -2.6769   -0.0029 C.ar      1 <0>        -0.2008
      6 C5         -0.5409   -4.0457   -0.0087 C.ar      1 <0>        -0.0075
      7 C6         -1.8240   -4.5997   -0.0048 C.ar      1 <0>        -0.0742
      8 C7         -2.9420   -3.7617    0.0051 C.ar      1 <0>        -0.0270
      9 C8         -2.7752   -2.3937    0.0157 C.ar      1 <0>        -0.1950
     10 C9         -3.9802   -1.4889    0.0316 C.3       1 <0>         0.0545
     11 N1         -4.2402   -0.9957   -1.3275 N.4       1 <0>        -0.3860
     12 C10        -5.4841   -0.2207   -1.3349 C.3       1 <0>        -0.0063
     13 C11        -5.7914    0.3128   -2.7261 C.3       1 <0>        -0.1190
     14 H1         -6.6727    0.9513   -2.6641 H         1 <0>         0.1429
     15 C12        -4.6231    1.1501   -3.2554 C.3       1 <0>        -0.1305
     16 C13        -3.3719    0.2643   -3.2220 C.3       1 <0>        -0.0658
     17 H2         -2.5118    0.8009   -3.6225 H         1 <0>         0.1467
     18 C14        -3.1211   -0.1467   -1.7617 C.3       1 <0>        -0.0047
     19 C15        -3.6343   -0.9920   -4.0218 C.2       1 <0>         0.1043
     20 C16        -2.5688   -1.5941   -4.6129 C.2       1 <0>        -0.1892
     21 C17        -2.7297   -2.7944   -5.3141 C.2       1 <0>        -0.0206
     22 C18        -3.9687   -3.3622   -5.3727 C.2       1 <0>        -0.2209
     23 C19        -5.0455   -2.7169   -4.7489 C.2       1 <0>         0.5088
     24 O2         -6.1453   -3.2464   -4.7415 O.2       1 <0>        -0.5278
     25 N2         -4.8774   -1.5108   -4.1530 N.am      1 <0>        -0.5043
     26 C20        -6.0790   -0.8092   -3.7099 C.3       1 <0>         0.0758
     27 C21        -1.9973   -6.0637   -0.0115 C.2       1 <0>         0.0981
     28 N3         -0.9574   -6.8402   -0.0210 N.2       1 <0>        -0.2118
     29 N4         -1.1221   -8.2314   -0.0274 N.am      1 <0>        -0.5795
     30 C22        -0.0423   -9.0378   -0.0373 C.2       1 <0>         0.5333
     31 O3          1.0724   -8.5589   -0.0407 O.2       1 <0>        -0.4656
     32 C23        -0.2194  -10.5343   -0.0441 C.3       1 <0>         0.0466
     33 O4          1.0625  -11.1657   -0.0542 O.3       1 <0>        -0.2788
     34 C24         1.0810  -12.5256   -0.0614 C.ar      1 <0>         0.0822
     35 C25        -0.1097  -13.2358   -0.0645 C.ar      1 <0>        -0.1539
     36 C26        -0.0899  -14.6175   -0.0717 C.ar      1 <0>        -0.1211
     37 C27         1.1182  -15.2939   -0.0754 C.ar      1 <0>         0.1017
     38 C28         2.3088  -14.5876   -0.0723 C.ar      1 <0>        -0.1513
     39 C29         2.2926  -13.2044   -0.0713 C.ar      1 <0>         0.1117
     40 F1          3.4542  -12.5145   -0.0740 F         1 <0>        -0.1176
     41 F2          1.1350  -16.6448   -0.0816 F         1 <0>        -0.1267
     42 H3          1.0039    1.9031    0.0027 H         1 <0>         0.0891
     43 H4         -0.5459    1.8868   -0.8726 H         1 <0>         0.0660
     44 H5         -0.5289    1.8773    0.9072 H         1 <0>         0.0706
     45 H6          0.5123   -0.3556   -0.8948 H         1 <0>         0.0740
     46 H7          0.5293   -0.3651    0.8851 H         1 <0>         0.0757
     47 H8          0.6074   -2.2480   -0.0059 H         1 <0>         0.1466
     48 H9          0.3261   -4.6896   -0.0166 H         1 <0>         0.1511
     49 H10        -3.9354   -4.1855    0.0078 H         1 <0>         0.1447
     50 H11        -4.8473   -2.0447    0.3884 H         1 <0>         0.1377
     51 H12        -3.7918   -0.6445    0.6946 H         1 <0>         0.1427
     52 H13        -6.3047   -0.8591   -1.0077 H         1 <0>         0.1350
     53 H14        -5.3872    0.6171   -0.6443 H         1 <0>         0.1407
     54 H15        -4.8268    1.4652   -4.2788 H         1 <0>         0.1030
     55 H16        -4.4757    2.0237   -2.6203 H         1 <0>         0.1034
     56 H17        -3.0680    0.7422   -1.1330 H         1 <0>         0.1461
     57 H18        -2.1871   -0.7043   -1.6914 H         1 <0>         0.1455
     58 H19        -1.5904   -1.1425   -4.5412 H         1 <0>         0.1514
     59 H20        -1.8873   -3.2631   -5.8009 H         1 <0>         0.1466
     60 H21        -4.1181   -4.2966   -5.8932 H         1 <0>         0.1586
     61 H22        -6.7538   -1.5255   -3.2411 H         1 <0>         0.1104
     62 H23        -6.5672   -0.3908   -4.5900 H         1 <0>         0.1046
     63 H24        -2.9896   -6.4900   -0.0084 H         1 <0>         0.1279
     64 H25        -2.0133   -8.6143   -0.0246 H         1 <0>         0.3925
     65 H26        -0.7677  -10.8394    0.8472 H         1 <0>         0.1047
     66 H27        -0.7771  -10.8301   -0.9327 H         1 <0>         0.1045
     67 H28        -1.0526  -12.7092   -0.0609 H         1 <0>         0.1485
     68 H29        -1.0177  -15.1702   -0.0741 H         1 <0>         0.1501
     69 H30         3.2504  -15.1166   -0.0748 H         1 <0>         0.1605
     70 H31        -4.3306   -1.7791   -1.9570 H         1 <0>         0.4159
@<TRIPOS>BOND
     1    1    2 1
     2    1   42 1
     3    1   43 1
     4    1   44 1
     5    2    3 1
     6    2   45 1
     7    2   46 1
     8    3    4 1
     9    4    9 ar
    10    4    5 ar
    11    5    6 ar
    12    5   47 1
    13    6    7 ar
    14    6   48 1
    15    7    8 ar
    16    7   27 1
    17    8    9 ar
    18    8   49 1
    19    9   10 1
    20   10   11 1
    21   10   50 1
    22   10   51 1
    23   11   18 1
    24   11   12 1
    25   11   70 1
    26   12   13 1
    27   12   52 1
    28   12   53 1
    29   13   14 1
    30   13   26 1
    31   13   15 1
    32   15   16 1
    33   15   54 1
    34   15   55 1
    35   16   17 1
    36   16   18 1
    37   16   19 1
    38   18   56 1
    39   18   57 1
    40   19   25 1
    41   19   20 2
    42   20   21 1
    43   20   58 1
    44   21   22 2
    45   21   59 1
    46   22   23 1
    47   22   60 1
    48   23   24 2
    49   23   25 am
    50   25   26 1
    51   26   61 1
    52   26   62 1
    53   27   28 2
    54   27   63 1
    55   28   29 1
    56   29   30 am
    57   29   64 1
    58   30   31 2
    59   30   32 1
    60   32   33 1
    61   32   65 1
    62   32   66 1
    63   33   34 1
    64   34   39 ar
    65   34   35 ar
    66   35   36 ar
    67   35   67 1
    68   36   37 ar
    69   36   68 1
    70   37   38 ar
    71   37   41 1
    72   38   39 ar
    73   38   69 1
    74   39   40 1
@<TRIPOS>MOLECULE
ZINC09357826
   56    60     0     0     0
SMALL
USER_CHARGES
methyl benzoyl-(4-bromophenyl)-cyano-BLAHcarboxylate
@<TRIPOS>ATOM
      1 C1         -3.1765   -0.2310    4.7138 C.3       1 <0>         0.0307
      2 O1         -3.6042    0.6278    3.6238 O.3       1 <0>        -0.3453
      3 C2         -2.9785    0.4749    2.4461 C.2       1 <0>         0.4824
      4 O2         -2.1026   -0.3491    2.3299 O.2       1 <0>        -0.4472
      5 C3         -3.3686    1.3311    1.2690 C.3       1 <0>         0.0484
      6 C4         -2.5136    0.9791    0.0192 C.3       1 <0>        -0.0384
      7 H1         -2.3260   -0.0933   -0.0358 H         1 <0>         0.1644
      8 C5         -3.4351    1.4403   -1.1377 C.3       1 <0>        -0.0095
      9 H2         -3.1678    0.9760   -1.9821 H         1 <0>         0.1569
     10 C6         -4.7912    0.9928    0.7915 C.3       1 <0>         0.0976
     11 H3         -5.0507   -0.0405    1.0221 H         1 <0>         0.1545
     12 C7         -5.8050    1.9364    1.3835 C.ar      1 <0>        -0.0915
     13 C8         -5.6711    2.4141    2.6663 C.ar      1 <0>        -0.0955
     14 C9         -6.6138    3.2881    3.1812 C.ar      1 <0>        -0.0777
     15 C10        -7.6920    3.6846    2.4095 C.ar      1 <0>        -0.0945
     16 C11        -7.8390    3.2108    1.1224 C.ar      1 <0>        -0.0686
     17 C12        -6.8947    2.3279    0.5955 C.ar      1 <0>        -0.0856
     18 C13        -7.0460    1.8113   -0.7800 C.2       1 <0>         0.0133
     19 C14        -5.9803    1.2670   -1.4023 C.2       1 <0>        -0.0930
     20 C15        -3.2154    2.9031   -1.4259 C.2       1 <0>         0.4144
     21 O3         -3.9882    3.7296   -0.9903 O.2       1 <0>        -0.4125
     22 C16        -2.0628    3.3284   -2.2362 C.ar      1 <0>        -0.1658
     23 C17        -1.1659    2.3786   -2.7356 C.ar      1 <0>        -0.0720
     24 C18        -0.0911    2.7847   -3.4980 C.ar      1 <0>        -0.1207
     25 C19         0.1075    4.1291   -3.7601 C.ar      1 <0>        -0.0647
     26 C20        -0.7729    5.0755   -3.2654 C.ar      1 <0>        -0.1223
     27 C21        -1.8555    4.6849   -2.5058 C.ar      1 <0>        -0.0494
     28 C22        -1.2191    1.7506    0.0173 C.ar      1 <0>        -0.1158
     29 C23        -1.2359    3.1288    0.1229 C.ar      1 <0>        -0.1233
     30 C24        -0.0486    3.8364    0.1270 C.ar      1 <0>        -0.0761
     31 C25         1.1564    3.1656    0.0200 C.ar      1 <0>        -0.0628
     32 C26         1.1725    1.7869   -0.0910 C.ar      1 <0>        -0.0865
     33 C27        -0.0153    1.0802   -0.0949 C.ar      1 <0>        -0.0694
     34 Br1         2.7812    4.1331    0.0261 Br        1 <0>        -0.0258
     35 C28        -3.2516    2.7607    1.5998 C.1       1 <0>         0.1878
     36 N1         -3.1613    3.8640    1.8551 N.1       1 <0>        -0.3155
     37 H4         -3.7613   -0.0049    5.6054 H         1 <0>         0.1182
     38 H5         -3.3273   -1.2739    4.4352 H         1 <0>         0.0782
     39 H6         -2.1199   -0.0588    4.9189 H         1 <0>         0.0767
     40 H7         -4.8308    2.1079    3.2717 H         1 <0>         0.1494
     41 H8         -6.5070    3.6621    4.1887 H         1 <0>         0.1434
     42 H9         -8.4219    4.3683    2.8171 H         1 <0>         0.1443
     43 H10        -8.6820    3.5227    0.5236 H         1 <0>         0.1451
     44 H11        -8.0003    1.8691   -1.2826 H         1 <0>         0.1868
     45 H12        -6.0396    0.8909   -2.4130 H         1 <0>         0.2059
     46 H13        -1.3171    1.3296   -2.5282 H         1 <0>         0.1270
     47 H14         0.6001    2.0521   -3.8878 H         1 <0>         0.1360
     48 H15         0.9537    4.4413   -4.3541 H         1 <0>         0.1357
     49 H16        -0.6115    6.1227   -3.4745 H         1 <0>         0.1376
     50 H17        -2.5416    5.4246   -2.1205 H         1 <0>         0.1356
     51 H18        -2.1768    3.6524    0.2068 H         1 <0>         0.1448
     52 H19        -0.0617    4.9128    0.2140 H         1 <0>         0.1370
     53 H20         2.1131    1.2628   -0.1741 H         1 <0>         0.1449
     54 H21        -0.0028    0.0037   -0.1815 H         1 <0>         0.1450
     55 N2         -4.7303    0.8711   -0.6447 N.4       1 <0>        -0.3560
     56 H22        -4.6548   -0.1387   -0.8144 H         1 <0>         0.4438
@<TRIPOS>BOND
     1    1    2 1
     2    1   37 1
     3    1   38 1
     4    1   39 1
     5    2    3 1
     6    3    4 2
     7    3    5 1
     8    5   10 1
     9    5    6 1
    10    5   35 1
    11    6    7 1
    12    6    8 1
    13    6   28 1
    14    8    9 1
    15    8   20 1
    16    8   55 1
    17   10   11 1
    18   10   12 1
    19   10   55 1
    20   12   17 ar
    21   12   13 ar
    22   13   14 ar
    23   13   40 1
    24   14   15 ar
    25   14   41 1
    26   15   16 ar
    27   15   42 1
    28   16   17 ar
    29   16   43 1
    30   17   18 1
    31   18   19 2
    32   18   44 1
    33   19   45 1
    34   19   55 1
    35   20   21 2
    36   20   22 1
    37   22   27 ar
    38   22   23 ar
    39   23   24 ar
    40   23   46 1
    41   24   25 ar
    42   24   47 1
    43   25   26 ar
    44   25   48 1
    45   26   27 ar
    46   26   49 1
    47   27   50 1
    48   28   33 ar
    49   28   29 ar
    50   29   30 ar
    51   29   51 1
    52   30   31 ar
    53   30   52 1
    54   31   32 ar
    55   31   34 1
    56   32   33 ar
    57   32   53 1
    58   33   54 1
    59   35   36 3
    60   55   56 1
@<TRIPOS>MOLECULE
ZINC23339537
   80    83     0     0     0
SMALL
USER_CHARGES
3-[(3S,4R)-1-isopropyl-4-[4-[3-(trifluoromethyl)phenyl]piperazin-1-yl]-3-piperidyl]-1-(4-methyl-1-piperidyl)propan-1-one
@<TRIPOS>ATOM
      1 C1          1.8767   -4.9328    8.6536 C.3       1 <0>        -0.1510
      2 C2          2.7093   -5.2208    7.4027 C.3       1 <0>        -0.0946
      3 C3          1.8007   -5.2075    6.1713 C.3       1 <0>        -0.1305
      4 C4          2.6315   -5.5299    4.9252 C.3       1 <0>         0.1065
      5 N1          3.7595   -4.5912    4.8530 N.am      1 <0>        -0.6075
      6 C5          4.6474   -4.4629    6.0166 C.3       1 <0>         0.1027
      7 C6          3.7908   -4.1484    7.2524 C.3       1 <0>        -0.1309
      8 C7          3.9789   -3.8658    3.7385 C.2       1 <0>         0.5149
      9 O1          3.2417   -3.9845    2.7828 O.2       1 <0>        -0.5457
     10 C8          5.1402   -2.9072    3.6799 C.3       1 <0>        -0.1391
     11 C9          5.1626   -2.2160    2.3151 C.3       1 <0>        -0.1069
     12 C10         6.3416   -1.2427    2.2556 C.3       1 <0>        -0.1023
     13 H1          6.2891   -0.5542    3.1119 H         1 <0>         0.0986
     14 C11         7.6547   -2.0270    2.3078 C.3       1 <0>         0.0549
     15 N2          7.7308   -2.9339    1.1552 N.3       1 <0>        -0.5300
     16 C12         7.7217   -2.1873   -0.1093 C.3       1 <0>         0.0473
     17 C13         6.4106   -1.4078   -0.2336 C.3       1 <0>        -0.1414
     18 C14         6.2807   -0.4451    0.9500 C.3       1 <0>         0.0396
     19 H2          7.0733    0.3171    0.9214 H         1 <0>         0.1324
     20 N3          4.9968    0.2640    0.8674 N.4       1 <0>        -0.4063
     21 C15         4.8703    1.2518    1.9481 C.3       1 <0>        -0.0027
     22 C16         3.4909    1.9107    1.8744 C.3       1 <0>         0.0199
     23 N4          3.3246    2.5476    0.5605 N.pl3     1 <0>        -0.4841
     24 C17         3.4511    1.5598   -0.5201 C.3       1 <0>         0.0235
     25 C18         4.8306    0.9009   -0.4465 C.3       1 <0>        -0.0046
     26 C19         2.1039    3.2219    0.4820 C.ar      1 <0>         0.0901
     27 C20         1.2380    3.2230    1.5685 C.ar      1 <0>        -0.1326
     28 C21         0.0322    3.8909    1.4876 C.ar      1 <0>        -0.0881
     29 C22        -0.3140    4.5584    0.3267 C.ar      1 <0>        -0.0790
     30 C23         0.5478    4.5637   -0.7545 C.ar      1 <0>        -0.1519
     31 C24         1.7532    3.8931   -0.6822 C.ar      1 <0>        -0.0830
     32 C25         0.1691    5.2974   -2.0152 C.3       1 <0>         0.5071
     33 F1         -0.5275    4.4331   -2.8665 F         1 <0>        -0.1726
     34 F2         -0.6435    6.3897   -1.6928 F         1 <0>        -0.1707
     35 F3          1.3269    5.7508   -2.6565 F         1 <0>        -0.1746
     36 C26         8.9123   -3.8020    1.2456 C.3       1 <0>         0.0801
     37 C27         8.8877   -4.8175    0.1014 C.3       1 <0>        -0.1510
     38 C28        10.1796   -2.9507    1.1447 C.3       1 <0>        -0.1913
     39 H3          1.0992   -5.7034    8.7620 H         1 <0>         0.0593
     40 H4          1.4029   -3.9446    8.5592 H         1 <0>         0.0545
     41 H5          2.5294   -4.9434    9.5389 H         1 <0>         0.0585
     42 H6          3.1837   -6.2088    7.4968 H         1 <0>         0.0748
     43 H7          1.0093   -5.9620    6.2914 H         1 <0>         0.0797
     44 H8          1.3450   -4.2123    6.0626 H         1 <0>         0.0657
     45 H9          3.0082   -6.5612    4.9924 H         1 <0>         0.0711
     46 H10         2.0027   -5.4270    4.0285 H         1 <0>         0.0945
     47 H11         5.1920   -5.4065    6.1680 H         1 <0>         0.0752
     48 H12         5.3661   -3.6488    5.8414 H         1 <0>         0.0844
     49 H13         3.3162   -3.1635    7.1311 H         1 <0>         0.0668
     50 H14         4.4269   -4.1408    8.1498 H         1 <0>         0.0800
     51 H15         5.0322   -2.1515    4.4719 H         1 <0>         0.0935
     52 H16         6.0798   -3.4601    3.8264 H         1 <0>         0.1049
     53 H17         5.2707   -2.9717    1.5231 H         1 <0>         0.1091
     54 H18         4.2230   -1.6631    2.1686 H         1 <0>         0.0529
     55 H19         8.5019   -1.3260    2.2788 H         1 <0>         0.0512
     56 H20         7.6952   -2.6128    3.2380 H         1 <0>         0.0965
     57 H21         8.5683   -1.4851   -0.1266 H         1 <0>         0.0499
     58 H22         7.8111   -2.8901   -0.9508 H         1 <0>         0.1018
     59 H23         6.4109   -0.8374   -1.1741 H         1 <0>         0.0931
     60 H24         5.5645   -2.1107   -0.2314 H         1 <0>         0.1002
     61 H25         4.9862    0.7492    2.9197 H         1 <0>         0.1396
     62 H26         5.6507    2.0190    1.8368 H         1 <0>         0.1382
     63 H27         2.7118    1.1468    2.0139 H         1 <0>         0.0738
     64 H28         3.4049    2.6708    2.6649 H         1 <0>         0.1318
     65 H29         2.6708    0.7925   -0.4087 H         1 <0>         0.0734
     66 H30         3.3351    2.0623   -1.4917 H         1 <0>         0.1300
     67 H31         5.6105    1.6641   -0.5853 H         1 <0>         0.1382
     68 H32         4.9174    0.1402   -1.2363 H         1 <0>         0.1437
     69 H33         1.5075    2.7017    2.4751 H         1 <0>         0.1371
     70 H34        -0.6412    3.8925    2.3319 H         1 <0>         0.1436
     71 H35        -1.2575    5.0803    0.2662 H         1 <0>         0.1437
     72 H36         2.4242    3.8945   -1.5285 H         1 <0>         0.1414
     73 H37         8.8677   -4.3145    2.2179 H         1 <0>         0.0887
     74 H38         9.7725   -5.4676    0.1691 H         1 <0>         0.0672
     75 H39         8.8964   -4.2854   -0.8613 H         1 <0>         0.0578
     76 H40         7.9766   -5.4295    0.1739 H         1 <0>         0.0668
     77 H41        11.0643   -3.6008    1.2124 H         1 <0>         0.0704
     78 H42        10.1973   -2.2206    1.9672 H         1 <0>         0.0564
     79 H43        10.1883   -2.4187    0.1819 H         1 <0>         0.0601
     80 H44         4.1938   -0.4778    0.9894 H         1 <0>         0.4355
@<TRIPOS>BOND
     1    1    2 1
     2    1   39 1
     3    1   40 1
     4    1   41 1
     5    2    7 1
     6    2    3 1
     7    2   42 1
     8    3    4 1
     9    3   43 1
    10    3   44 1
    11    4    5 1
    12    4   45 1
    13    4   46 1
    14    5    6 1
    15    5    8 am
    16    6    7 1
    17    6   47 1
    18    6   48 1
    19    7   49 1
    20    7   50 1
    21    8    9 2
    22    8   10 1
    23   10   11 1
    24   10   51 1
    25   10   52 1
    26   11   12 1
    27   11   53 1
    28   11   54 1
    29   12   13 1
    30   12   18 1
    31   12   14 1
    32   14   15 1
    33   14   55 1
    34   14   56 1
    35   15   16 1
    36   15   36 1
    37   16   17 1
    38   16   57 1
    39   16   58 1
    40   17   18 1
    41   17   59 1
    42   17   60 1
    43   18   19 1
    44   18   20 1
    45   20   25 1
    46   20   21 1
    47   20   80 1
    48   21   22 1
    49   21   61 1
    50   21   62 1
    51   22   23 1
    52   22   63 1
    53   22   64 1
    54   23   24 1
    55   23   26 1
    56   24   25 1
    57   24   65 1
    58   24   66 1
    59   25   67 1
    60   25   68 1
    61   26   31 ar
    62   26   27 ar
    63   27   28 ar
    64   27   69 1
    65   28   29 ar
    66   28   70 1
    67   29   30 ar
    68   29   71 1
    69   30   31 ar
    70   30   32 1
    71   31   72 1
    72   32   33 1
    73   32   34 1
    74   32   35 1
    75   36   37 1
    76   36   38 1
    77   36   73 1
    78   37   74 1
    79   37   75 1
    80   37   76 1
    81   38   77 1
    82   38   78 1
    83   38   79 1
@<TRIPOS>MOLECULE
ZINC34747370
   74    79     0     0     0
SMALL
USER_CHARGES

@<TRIPOS>ATOM
      1 C1          1.0090    2.1644   -0.6539 C.ar      1 <0>        -0.1189
      2 C2          2.3214    2.5978   -0.6787 C.ar      1 <0>        -0.1131
      3 C3          3.3530    1.6850   -0.5629 C.ar      1 <0>        -0.1138
      4 C4          3.0722    0.3388   -0.4218 C.ar      1 <0>        -0.0894
      5 C5          1.7598   -0.0945   -0.3961 C.ar      1 <0>        -0.1204
      6 C6          0.7282    0.8182   -0.5133 C.ar      1 <0>        -0.1186
      7 C7          4.1969   -0.6564   -0.2966 C.3       1 <0>        -0.0726
      8 C8          4.5550   -0.8382    1.1798 C.3       1 <0>        -0.1255
      9 C9          5.6968   -1.8486    1.3069 C.3       1 <0>         0.0925
     10 N1          6.0397   -2.0227    2.7205 N.am      1 <0>        -0.5236
     11 C10         6.8912   -1.1594    3.3041 C.2       1 <0>         0.5548
     12 O1          7.3738   -0.2401    2.6653 O.2       1 <0>        -0.5045
     13 C11         7.2220   -1.3354    4.6852 C.2       1 <0>        -0.2257
     14 C12         8.1168   -0.5258    5.5145 C.2       1 <0>        -0.0566
     15 C13         8.2643   -0.9005    6.8013 C.2       1 <0>        -0.1525
     16 S1          7.2358   -2.3325    6.9848 S.3       1 <0>         0.1601
     17 C14         6.6096   -2.4249    5.3265 C.2       1 <0>         0.0877
     18 N2          5.7765   -3.2414    4.6914 N.2       1 <0>        -0.4753
     19 C15         5.4854   -3.0532    3.4210 C.2       1 <0>         0.6143
     20 N3          4.6164   -3.9094    2.7916 N.pl3     1 <0>        -0.6507
     21 C16         5.1064   -5.1140    2.1040 C.3       1 <0>         0.1181
     22 C17         4.2905   -6.3165    2.5901 C.3       1 <0>        -0.0199
     23 N4          2.8602   -6.0471    2.3955 N.4       1 <0>        -0.3823
     24 C18         2.4442   -4.9201    3.2398 C.3       1 <0>        -0.0265
     25 C19         3.1681   -3.6515    2.7908 C.3       1 <0>         0.1190
     26 C20         2.0851   -7.2410    2.7587 C.3       1 <0>        -0.0059
     27 C21         0.6074   -7.0062    2.4394 C.3       1 <0>        -0.0990
     28 C22        -0.1878   -8.2309    2.8120 C.ar      1 <0>        -0.1091
     29 C23        -0.3805   -9.2382    1.8851 C.ar      1 <0>        -0.1098
     30 C24        -1.1099  -10.3616    2.2268 C.ar      1 <0>        -0.1140
     31 C25        -1.6461  -10.4780    3.4956 C.ar      1 <0>        -0.1037
     32 C26        -1.4526   -9.4711    4.4228 C.ar      1 <0>        -0.1138
     33 C27        -0.7196   -8.3497    4.0824 C.ar      1 <0>        -0.1097
     34 C28         9.1157   -0.2452    7.8458 C.3       1 <0>        -0.0423
     35 C29        10.0951    0.7071    7.1448 C.3       1 <0>        -0.1161
     36 C30         9.3158    1.5591    6.1387 C.3       1 <0>        -0.1248
     37 C31         8.8585    0.6902    4.9665 C.3       1 <0>        -0.0594
     38 H1          0.2029    2.8781   -0.7399 H         1 <0>         0.1243
     39 H2          2.5408    3.6495   -0.7889 H         1 <0>         0.1252
     40 H3          4.3784    2.0235   -0.5830 H         1 <0>         0.1228
     41 H4          1.5404   -1.1462   -0.2862 H         1 <0>         0.1152
     42 H5         -0.2972    0.4796   -0.4936 H         1 <0>         0.1223
     43 H6          3.8839   -1.6130   -0.7150 H         1 <0>         0.0721
     44 H7          5.0683   -0.2901   -0.8394 H         1 <0>         0.0798
     45 H8          4.8680    0.1184    1.5982 H         1 <0>         0.0782
     46 H9          3.6836   -1.2045    1.7225 H         1 <0>         0.0636
     47 H10         5.3838   -2.8052    0.8885 H         1 <0>         0.0925
     48 H11         6.5682   -1.4824    0.7641 H         1 <0>         0.1034
     49 H12         4.9814   -4.9977    1.0274 H         1 <0>         0.0944
     50 H13         6.1597   -5.2670    2.3390 H         1 <0>         0.1221
     51 H14         4.5742   -7.2020    2.0214 H         1 <0>         0.1440
     52 H15         4.4878   -6.4856    3.6486 H         1 <0>         0.1391
     53 H16         1.3674   -4.7767    3.1500 H         1 <0>         0.1447
     54 H17         2.6974   -5.1315    4.2788 H         1 <0>         0.1397
     55 H18         2.9405   -2.8380    3.4796 H         1 <0>         0.1211
     56 H19         2.8441   -3.3849    1.7848 H         1 <0>         0.0942
     57 H20         2.4483   -8.0969    2.1897 H         1 <0>         0.1344
     58 H21         2.1997   -7.4382    3.8245 H         1 <0>         0.1325
     59 H22         0.2442   -6.1503    3.0084 H         1 <0>         0.0945
     60 H23         0.4928   -6.8090    1.3735 H         1 <0>         0.0954
     61 H24         0.0384   -9.1473    0.8938 H         1 <0>         0.1241
     62 H25        -1.2611  -11.1483    1.5024 H         1 <0>         0.1294
     63 H26        -2.2166  -11.3554    3.7623 H         1 <0>         0.1297
     64 H27        -1.8719   -9.5619    5.4139 H         1 <0>         0.1294
     65 H28        -0.5653   -7.5647    4.8079 H         1 <0>         0.1236
     66 H29         8.4847    0.3180    8.5334 H         1 <0>         0.0903
     67 H30         9.6719   -1.0045    8.3955 H         1 <0>         0.0880
     68 H31        10.5677    1.3544    7.8836 H         1 <0>         0.0801
     69 H32        10.8565    0.1285    6.6217 H         1 <0>         0.0706
     70 H33         8.4446    1.9930    6.6296 H         1 <0>         0.0669
     71 H34         9.9569    2.3589    5.7682 H         1 <0>         0.0750
     72 H35         9.7263    0.3616    4.3946 H         1 <0>         0.0805
     73 H36         8.1920    1.2656    4.3240 H         1 <0>         0.0862
     74 H37         2.6906   -5.8207    1.4270 H         1 <0>         0.4220
@<TRIPOS>BOND
     1    1    6 ar
     2    1    2 ar
     3    1   38 1
     4    2    3 ar
     5    2   39 1
     6    3    4 ar
     7    3   40 1
     8    4    5 ar
     9    4    7 1
    10    5    6 ar
    11    5   41 1
    12    6   42 1
    13    7    8 1
    14    7   43 1
    15    7   44 1
    16    8    9 1
    17    8   45 1
    18    8   46 1
    19    9   10 1
    20    9   47 1
    21    9   48 1
    22   10   19 1
    23   10   11 am
    24   11   12 2
    25   11   13 1
    26   13   17 2
    27   13   14 1
    28   14   37 1
    29   14   15 2
    30   15   16 1
    31   15   34 1
    32   16   17 1
    33   17   18 1
    34   18   19 2
    35   19   20 1
    36   20   25 1
    37   20   21 1
    38   21   22 1
    39   21   49 1
    40   21   50 1
    41   22   23 1
    42   22   51 1
    43   22   52 1
    44   23   24 1
    45   23   26 1
    46   23   74 1
    47   24   25 1
    48   24   53 1
    49   24   54 1
    50   25   55 1
    51   25   56 1
    52   26   27 1
    53   26   57 1
    54   26   58 1
    55   27   28 1
    56   27   59 1
    57   27   60 1
    58   28   33 ar
    59   28   29 ar
    60   29   30 ar
    61   29   61 1
    62   30   31 ar
    63   30   62 1
    64   31   32 ar
    65   31   63 1
    66   32   33 ar
    67   32   64 1
    68   33   65 1
    69   34   35 1
    70   34   66 1
    71   34   67 1
    72   35   36 1
    73   35   68 1
    74   35   69 1
    75   36   37 1
    76   36   70 1
    77   36   71 1
    78   37   72 1
    79   37   73 1
@<TRIPOS>MOLECULE
ZINC36648013
   61    64     0     0     0
SMALL
USER_CHARGES

@<TRIPOS>ATOM
      1 C1         -1.7709    1.2725    0.0738 C.3       1 <0>        -0.1219
      2 C2         -1.5929   -0.2238    0.0880 C.ar      1 <0>        -0.0460
      3 C3         -1.9218   -0.9794   -1.0283 C.ar      1 <0>        -0.1061
      4 C4         -1.7697   -2.3412   -1.0415 C.ar      1 <0>        -0.0553
      5 C5         -1.2686   -3.0233    0.0914 C.ar      1 <0>         0.0780
      6 C6         -0.9443   -2.2216    1.2096 C.ar      1 <0>        -0.1673
      7 C7         -1.0948   -0.8573    1.2117 C.ar      1 <0>        -0.0672
      8 S1         -0.3675   -3.4247    2.3828 S.3       1 <0>         0.0845
      9 C8         -0.5856   -4.8674    1.3506 C.2       1 <0>         0.3190
     10 N1         -1.0592   -4.3490    0.2416 N.2       1 <0>        -0.5187
     11 N2         -0.3222   -6.1950    1.6461 N.am      1 <0>        -0.4999
     12 C9         -0.4314   -7.2140    0.5992 C.3       1 <0>         0.0873
     13 C10         0.8893   -7.3002   -0.1684 C.3       1 <0>        -0.0285
     14 N3          0.7798   -8.3220   -1.2181 N.4       1 <0>        -0.3819
     15 C11         2.0033   -8.3220   -2.0311 C.3       1 <0>        -0.0461
     16 C12         0.6029   -9.6426   -0.5995 C.3       1 <0>        -0.0547
     17 C13         0.0345   -6.5492    2.8966 C.2       1 <0>         0.5377
     18 O1          0.3676   -7.6913    3.1316 O.2       1 <0>        -0.4781
     19 C14         0.0195   -5.5259    4.0028 C.3       1 <0>        -0.1456
     20 H1         -0.7923   -4.8186    3.8331 H         1 <0>         0.1156
     21 C15         1.3538   -4.7766    4.0236 C.3       1 <0>        -0.1160
     22 C16         1.3274   -3.7148    5.1254 C.3       1 <0>        -0.1336
     23 C17         1.1354   -4.3981    6.4830 C.3       1 <0>         0.1121
     24 N4         -0.0696   -5.2367    6.4241 N.pl3     1 <0>        -0.9922
     25 C18        -0.1881   -6.2296    5.3475 C.3       1 <0>         0.1418
     26 S2         -1.2720   -5.0662    7.5499 S.o2      1 <0>         2.7203
     27 O2         -1.9727   -6.3019    7.5860 O.2       1 <0>        -0.9357
     28 O3         -0.6696   -4.4980    8.7047 O.2       1 <0>        -0.9320
     29 C19        -2.4013   -3.8649    6.9282 C.2       1 <0>        -0.7695
     30 C20        -3.5020   -4.0464    6.1589 C.2       1 <0>         0.0024
     31 C21        -4.2484   -2.9440    5.7853 C.2       1 <0>        -0.1767
     32 C22        -3.8560   -1.7136    6.2003 C.2       1 <0>        -0.0835
     33 S3         -2.3963   -2.0942    7.1551 S.3       1 <0>         0.2298
     34 Cl1        -4.5874   -0.1702    5.8895 Cl        1 <0>         0.0413
     35 H2         -0.8582    1.7436   -0.2911 H         1 <0>         0.0821
     36 H3         -2.6016    1.5334   -0.5819 H         1 <0>         0.0769
     37 H4         -1.9817    1.6230    1.0842 H         1 <0>         0.0747
     38 H5         -2.3070   -0.4830   -1.9067 H         1 <0>         0.1392
     39 H6         -2.0356   -2.8997   -1.9268 H         1 <0>         0.1337
     40 H7         -0.8299   -0.2827    2.0869 H         1 <0>         0.1366
     41 H8         -0.6511   -8.1800    1.0539 H         1 <0>         0.1228
     42 H9         -1.2339   -6.9448   -0.0876 H         1 <0>         0.1186
     43 H10         1.1090   -6.3343   -0.6231 H         1 <0>         0.1357
     44 H11         1.6918   -7.5695    0.5184 H         1 <0>         0.1368
     45 H12         2.8613   -8.5437   -1.3963 H         1 <0>         0.1233
     46 H13         1.9221   -9.0801   -2.8100 H         1 <0>         0.1289
     47 H14         2.1346   -7.3421   -2.4901 H         1 <0>         0.1237
     48 H15        -0.3050   -9.6426    0.0037 H         1 <0>         0.1243
     49 H16         0.5216  -10.4007   -1.3784 H         1 <0>         0.1293
     50 H17         1.4608   -9.8643    0.0352 H         1 <0>         0.1264
     51 H18         2.1628   -5.4809    4.2173 H         1 <0>         0.0884
     52 H19         1.5150   -4.2951    3.0591 H         1 <0>         0.0833
     53 H20         2.2691   -3.1659    5.1243 H         1 <0>         0.0964
     54 H21         0.5032   -3.0245    4.9457 H         1 <0>         0.0743
     55 H22         2.0027   -5.0198    6.7051 H         1 <0>         0.0892
     56 H23         1.0168   -3.6420    7.2591 H         1 <0>         0.1021
     57 H24        -1.1796   -6.6816    5.3741 H         1 <0>         0.1008
     58 H25         0.5710   -7.0010    5.4773 H         1 <0>         0.1023
     59 H26        -3.7917   -5.0374    5.8420 H         1 <0>         0.1540
     60 H27        -5.1298   -3.0608    5.1722 H         1 <0>         0.1540
     61 H28        -0.0144   -8.1167   -1.8057 H         1 <0>         0.4293
@<TRIPOS>BOND
     1    1    2 1
     2    1   35 1
     3    1   36 1
     4    1   37 1
     5    2    7 ar
     6    2    3 ar
     7    3    4 ar
     8    3   38 1
     9    4    5 ar
    10    4   39 1
    11    5   10 1
    12    5    6 ar
    13    6    7 ar
    14    6    8 1
    15    7   40 1
    16    8    9 1
    17    9   10 2
    18    9   11 1
    19   11   12 1
    20   11   17 am
    21   12   13 1
    22   12   41 1
    23   12   42 1
    24   13   14 1
    25   13   43 1
    26   13   44 1
    27   14   15 1
    28   14   16 1
    29   14   61 1
    30   15   45 1
    31   15   46 1
    32   15   47 1
    33   16   48 1
    34   16   49 1
    35   16   50 1
    36   17   18 2
    37   17   19 1
    38   19   20 1
    39   19   25 1
    40   19   21 1
    41   21   22 1
    42   21   51 1
    43   21   52 1
    44   22   23 1
    45   22   53 1
    46   22   54 1
    47   23   24 1
    48   23   55 1
    49   23   56 1
    50   24   25 1
    51   24   26 1
    52   25   57 1
    53   25   58 1
    54   26   27 2
    55   26   28 2
    56   26   29 1
    57   29   33 1
    58   29   30 2
    59   30   31 1
    60   30   59 1
    61   31   32 2
    62   31   60 1
    63   32   33 1
    64   32   34 1
@<TRIPOS>MOLECULE
ZINC04172567
   69    72     0     0     0
SMALL
USER_CHARGES

@<TRIPOS>ATOM
      1 C1         -0.9213    1.2852   -4.5131 C.3       1 <0>        -0.1346
      2 C2         -0.6324   -0.0035   -3.7873 C.2       1 <0>         0.0222
      3 C3         -1.1603   -1.2160   -4.2658 C.2       1 <0>        -0.1240
      4 C4         -0.9047   -2.3717   -3.6208 C.2       1 <0>         0.0463
      5 N1         -0.1295   -2.3834   -2.4924 N.pl3     1 <0>        -0.3569
      6 C5          0.4008   -1.2125   -2.0006 C.cat     1 <0>         0.3256
      7 C6          0.1440    0.0020   -2.6713 C.2       1 <0>        -0.1423
      8 N2          1.1026   -1.4917   -0.9143 N.pl3     1 <0>        -0.4760
      9 C7          1.0480   -2.8152   -0.6786 C.2       1 <0>         0.0223
     10 C8          0.2754   -3.3930   -1.6637 C.2       1 <0>         0.3278
     11 N3         -0.0344   -4.7482   -1.7906 N.pl3     1 <0>        -0.6833
     12 C9         -0.6953   -5.2382   -3.0027 C.3       1 <0>         0.1623
     13 C10        -2.1074   -4.6550   -3.0849 C.3       1 <0>        -0.2095
     14 C11         0.1073   -4.8060   -4.2315 C.3       1 <0>        -0.2268
     15 C12        -0.7761   -6.7654   -2.9576 C.3       1 <0>        -0.1153
     16 C13         0.5142   -7.3269   -2.3572 C.3       1 <0>        -0.0723
     17 C14         0.3345   -7.5177   -0.8498 C.3       1 <0>        -0.1562
     18 C15         0.8350   -8.6744   -3.0071 C.3       1 <0>        -0.1447
     19 C16         1.6635   -6.3502   -2.6142 C.3       1 <0>        -0.2167
     20 C17         1.7040   -3.5276    0.4433 C.ar      1 <0>        -0.0258
     21 C18         2.3667   -4.7330    0.2137 C.ar      1 <0>        -0.0956
     22 C19         2.9765   -5.3929    1.2601 C.ar      1 <0>        -0.0791
     23 C20         2.9311   -4.8588    2.5405 C.ar      1 <0>         0.0913
     24 C21         2.2719   -3.6594    2.7727 C.ar      1 <0>        -0.1101
     25 C22         1.6649   -2.9911    1.7300 C.ar      1 <0>        -0.0803
     26 O1          3.5331   -5.5118    3.5694 O.3       1 <0>        -0.6562
     27 S1          4.9856   -5.1141    3.7898 S.o2      1 <0>         2.6747
     28 O2          5.5152   -6.0233    4.7448 O.2       1 <0>        -0.9103
     29 O3          5.5597   -4.9426    2.5013 O.2       1 <0>        -0.9435
     30 C23         4.9809   -3.5267    4.5543 C.ar      1 <0>        -0.7046
     31 C24         4.9947   -2.3846    3.7755 C.ar      1 <0>        -0.0080
     32 C25         4.9910   -1.1391    4.3747 C.ar      1 <0>        -0.1329
     33 C26         4.9734   -1.0355    5.7542 C.ar      1 <0>         0.0239
     34 C27         4.9596   -2.1788    6.5331 C.ar      1 <0>        -0.1281
     35 C28         4.9576   -3.4237    5.9327 C.ar      1 <0>         0.0033
     36 Cl1         4.9693    0.5286    6.5075 Cl        1 <0>        -0.0420
     37 H1         -0.1549    1.4562   -5.2691 H         1 <0>         0.1003
     38 H2         -1.8975    1.2206   -4.9936 H         1 <0>         0.0912
     39 H3         -0.9205    2.1110   -3.8017 H         1 <0>         0.0892
     40 H4         -1.7740   -1.2211   -5.1544 H         1 <0>         0.1804
     41 H5         -1.3154   -3.2969   -3.9974 H         1 <0>         0.2322
     42 H6          0.5571    0.9279   -2.2994 H         1 <0>         0.1785
     43 H7          0.1880   -5.3655   -1.0761 H         1 <0>         0.4345
     44 H8         -2.0726   -3.5872   -2.8690 H         1 <0>         0.0724
     45 H9         -2.5069   -4.8103   -4.0871 H         1 <0>         0.0928
     46 H10        -2.7488   -5.1521   -2.3571 H         1 <0>         0.0838
     47 H11         1.0822   -5.2933   -4.2185 H         1 <0>         0.1106
     48 H12        -0.4301   -5.0923   -5.1356 H         1 <0>         0.0894
     49 H13         0.2415   -3.7244   -4.2157 H         1 <0>         0.0608
     50 H14        -1.6241   -7.0664   -2.3425 H         1 <0>         0.0833
     51 H15        -0.9050   -7.1524   -3.9685 H         1 <0>         0.0962
     52 H16        -0.6840   -7.8468   -0.6441 H         1 <0>         0.0687
     53 H17         1.0384   -8.2692   -0.4922 H         1 <0>         0.0745
     54 H18         0.5212   -6.5729   -0.3392 H         1 <0>         0.0448
     55 H19         0.9631   -8.5385   -4.0810 H         1 <0>         0.0597
     56 H20         1.7543   -9.0744   -2.5793 H         1 <0>         0.0623
     57 H21         0.0163   -9.3702   -2.8240 H         1 <0>         0.0613
     58 H22         1.4384   -5.3926   -2.1449 H         1 <0>         0.0956
     59 H23         2.5843   -6.7537   -2.1930 H         1 <0>         0.0609
     60 H24         1.7867   -6.2086   -3.6879 H         1 <0>         0.0788
     61 H25         2.4021   -5.1493   -0.7821 H         1 <0>         0.1534
     62 H26         3.4896   -6.3266    1.0831 H         1 <0>         0.1568
     63 H27         2.2382   -3.2468    3.7702 H         1 <0>         0.1539
     64 H28         1.1563   -2.0556    1.9105 H         1 <0>         0.1453
     65 H29         5.0088   -2.4657    2.6986 H         1 <0>         0.1482
     66 H30         5.0021   -0.2470    3.7661 H         1 <0>         0.1467
     67 H31         4.9462   -2.0985    7.6101 H         1 <0>         0.1511
     68 H32         4.9420   -4.3163    6.5406 H         1 <0>         0.1558
     69 H33         1.5813   -0.8443   -0.3734 H         1 <0>         0.4615
@<TRIPOS>BOND
     1    1    2 1
     2    1   37 1
     3    1   38 1
     4    1   39 1
     5    2    7 2
     6    2    3 1
     7    3    4 2
     8    3   40 1
     9    4    5 1
    10    4   41 1
    11    5   10 1
    12    5    6 1
    13    6    7 1
    14    6    8 2
    15    7   42 1
    16    8    9 1
    17    8   69 1
    18    9   10 2
    19    9   20 1
    20   10   11 1
    21   11   12 1
    22   11   43 1
    23   12   13 1
    24   12   14 1
    25   12   15 1
    26   13   44 1
    27   13   45 1
    28   13   46 1
    29   14   47 1
    30   14   48 1
    31   14   49 1
    32   15   16 1
    33   15   50 1
    34   15   51 1
    35   16   17 1
    36   16   18 1
    37   16   19 1
    38   17   52 1
    39   17   53 1
    40   17   54 1
    41   18   55 1
    42   18   56 1
    43   18   57 1
    44   19   58 1
    45   19   59 1
    46   19   60 1
    47   20   25 ar
    48   20   21 ar
    49   21   22 ar
    50   21   61 1
    51   22   23 ar
    52   22   62 1
    53   23   24 ar
    54   23   26 1
    55   24   25 ar
    56   24   63 1
    57   25   64 1
    58   26   27 1
    59   27   28 2
    60   27   29 2
    61   27   30 1
    62   30   35 ar
    63   30   31 ar
    64   31   32 ar
    65   31   65 1
    66   32   33 ar
    67   32   66 1
    68   33   34 ar
    69   33   36 1
    70   34   35 ar
    71   34   67 1
    72   35   68 1
@<TRIPOS>MOLECULE
ZINC08767091
   67    71     0     0     0
SMALL
USER_CHARGES
isopropyl 2-(4-chlorophenyl)-4-methyl-8-[[5-(4-methylpiperazin-1-yl)-2-furyl]methylene]-9-oxo-7-thia-1,5-diazabicyclo[4.3.0]nona-3,5-diene-3-carboxylate
@<TRIPOS>ATOM
      1 C1         -1.2971   -0.7671    0.0931 C.3       1 <0>        -0.1045
      2 C2         -0.0075    0.0072    0.1845 C.2       1 <0>         0.2552
      3 C3          1.1525   -0.6436    0.5039 C.2       1 <0>        -0.2880
      4 C4          2.4244    0.1695    0.5848 C.3       1 <0>         0.2514
      5 H1          3.1384   -0.2535   -0.1219 H         1 <0>         0.0951
      6 N1          2.3155    1.6284    0.3082 N.am      1 <0>        -0.5819
      7 C5          3.3176    2.5168    0.3278 C.2       1 <0>         0.5505
      8 O1          4.4565    2.1710    0.5901 O.2       1 <0>        -0.4579
      9 C6          3.0164    3.8693    0.0357 C.2       1 <0>        -0.2694
     10 C7          3.8566    4.9622   -0.0101 C.2       1 <0>         0.1266
     11 C8          5.2482    4.7834    0.0809 C.2       1 <0>        -0.0375
     12 C9          6.1945    5.7900    0.1862 C.2       1 <0>        -0.0989
     13 C10         7.4407    5.1632    0.2519 C.2       1 <0>        -0.2160
     14 C11         7.2207    3.8176    0.1777 C.2       1 <0>         0.1891
     15 O2          5.9005    3.5987    0.0751 O.3       1 <0>        -0.1259
     16 N2          8.1966    2.8419    0.2038 N.pl3     1 <0>        -0.4373
     17 C12         9.1858    3.0577   -0.8614 C.3       1 <0>         0.0219
     18 C13        10.2906    2.0046   -0.7490 C.3       1 <0>         0.0034
     19 C14         8.7084    0.4479    0.2165 C.3       1 <0>         0.0023
     20 C15         7.6036    1.5010    0.1041 C.3       1 <0>         0.0198
     21 C16        10.7362   -0.3747   -0.8209 C.3       1 <0>        -0.0412
     22 S1          1.2585    3.7804   -0.2585 S.3       1 <0>         0.1803
     23 C17         1.0533    2.0814    0.0057 C.2       1 <0>         0.3762
     24 N3         -0.0075    1.3131   -0.0459 N.2       1 <0>        -0.5097
     25 C18         2.9950    0.0013    1.9694 C.ar      1 <0>        -0.0925
     26 C19         2.4822    0.7361    3.0220 C.ar      1 <0>        -0.0886
     27 C20         3.0014    0.5782    4.2932 C.ar      1 <0>        -0.1079
     28 C21         4.0421   -0.3074    4.5099 C.ar      1 <0>        -0.0250
     29 C22         4.5586   -1.0384    3.4550 C.ar      1 <0>        -0.1137
     30 C23         4.0349   -0.8837    2.1854 C.ar      1 <0>        -0.0579
     31 Cl1         4.6990   -0.5016    6.1050 Cl        1 <0>        -0.0633
     32 C24         1.1615   -2.0254    0.7497 C.2       1 <0>         0.5274
     33 O3          0.1259   -2.6632    0.6800 O.2       1 <0>        -0.5019
     34 O4          2.3185   -2.6481    1.0636 O.3       1 <0>        -0.3474
     35 C25         2.2540   -4.0557    1.3011 C.3       1 <0>         0.0811
     36 C26         3.5838   -4.7010    0.9060 C.3       1 <0>        -0.1472
     37 C27         1.9844   -4.3107    2.7854 C.3       1 <0>        -0.1699
     38 H2         -2.1096   -0.0899   -0.1700 H         1 <0>         0.0792
     39 H3         -1.2046   -1.5381   -0.6719 H         1 <0>         0.0996
     40 H4         -1.5099   -1.2334    1.0551 H         1 <0>         0.0994
     41 H5          3.4456    5.9553   -0.1158 H         1 <0>         0.1870
     42 H6          6.0050    6.8528    0.2145 H         1 <0>         0.1710
     43 H7          8.3998    5.6517    0.3408 H         1 <0>         0.1618
     44 H8          8.6988    2.9717   -1.8327 H         1 <0>         0.0758
     45 H9          9.6197    4.0524   -0.7587 H         1 <0>         0.1359
     46 H10        10.7956    2.1083    0.2114 H         1 <0>         0.1444
     47 H11        11.0102    2.1449   -1.5556 H         1 <0>         0.1439
     48 H12         9.1954    0.5339    1.1878 H         1 <0>         0.1434
     49 H13         8.2745   -0.5468    0.1137 H         1 <0>         0.1412
     50 H14         6.8840    1.3607    0.9107 H         1 <0>         0.1414
     51 H15         7.0986    1.3973   -0.8563 H         1 <0>         0.0757
     52 H16        10.2763   -1.3526   -0.9639 H         1 <0>         0.1241
     53 H17        11.4551   -0.1911   -1.6194 H         1 <0>         0.1247
     54 H18        11.2479   -0.3511    0.1412 H         1 <0>         0.1260
     55 H19         1.6728    1.4306    2.8519 H         1 <0>         0.1164
     56 H20         2.5977    1.1491    5.1163 H         1 <0>         0.1347
     57 H21         5.3708   -1.7301    3.6237 H         1 <0>         0.1330
     58 H22         4.4378   -1.4546    1.3619 H         1 <0>         0.1316
     59 H23         1.4495   -4.4880    0.7061 H         1 <0>         0.0848
     60 H24         4.3884   -4.2687    1.5010 H         1 <0>         0.0633
     61 H25         3.5346   -5.7748    1.0871 H         1 <0>         0.0793
     62 H26         3.7759   -4.5194   -0.1514 H         1 <0>         0.0612
     63 H27         2.7889   -3.8784    3.3803 H         1 <0>         0.0630
     64 H28         1.0370   -3.8510    3.0668 H         1 <0>         0.0610
     65 H29         1.9352   -5.3845    2.9665 H         1 <0>         0.0743
     66 N4          9.6838    0.6624   -0.8730 N.4       1 <0>        -0.4022
     67 H30         9.1966    0.5983   -1.7745 H         1 <0>         0.4280
@<TRIPOS>BOND
     1    1    2 1
     2    1   38 1
     3    1   39 1
     4    1   40 1
     5    2   24 1
     6    2    3 2
     7    3    4 1
     8    3   32 1
     9    4    5 1
    10    4    6 1
    11    4   25 1
    12    6   23 1
    13    6    7 am
    14    7    8 2
    15    7    9 1
    16    9   10 2
    17    9   22 1
    18   10   11 1
    19   10   41 1
    20   11   15 1
    21   11   12 2
    22   12   13 1
    23   12   42 1
    24   13   14 2
    25   13   43 1
    26   14   15 1
    27   14   16 1
    28   16   20 1
    29   16   17 1
    30   17   18 1
    31   17   44 1
    32   17   45 1
    33   18   46 1
    34   18   47 1
    35   18   66 1
    36   19   20 1
    37   19   48 1
    38   19   49 1
    39   19   66 1
    40   20   50 1
    41   20   51 1
    42   21   52 1
    43   21   53 1
    44   21   54 1
    45   21   66 1
    46   22   23 1
    47   23   24 2
    48   25   30 ar
    49   25   26 ar
    50   26   27 ar
    51   26   55 1
    52   27   28 ar
    53   27   56 1
    54   28   29 ar
    55   28   31 1
    56   29   30 ar
    57   29   57 1
    58   30   58 1
    59   32   33 2
    60   32   34 1
    61   34   35 1
    62   35   36 1
    63   35   37 1
    64   35   59 1
    65   36   60 1
    66   36   61 1
    67   36   62 1
    68   37   63 1
    69   37   64 1
    70   37   65 1
    71   66   67 1
@<TRIPOS>MOLECULE
ZINC13769682
   71    75     0     0     0
SMALL
USER_CHARGES
3-(3-morpholinopropyl)-N-phenyl-4-[3-(1-piperidylsulfonyl)phenyl]thiazol-2-imine
@<TRIPOS>ATOM
      1 C1          5.1949    4.8535   -0.7397 C.ar      1 <0>        -0.0751
      2 C2          4.6044    4.2924   -1.8585 C.ar      1 <0>        -0.1051
      3 C3          3.3239    3.7854   -1.7854 C.ar      1 <0>        -0.0893
      4 C4          2.6225    3.8397   -0.5780 C.ar      1 <0>         0.0431
      5 C5          3.2231    4.4129    0.5459 C.ar      1 <0>        -0.0860
      6 C6          4.5064    4.9107    0.4593 C.ar      1 <0>        -0.1054
      7 N1          1.3526    3.3394   -0.4983 N.pl3     1 <0>        -0.5425
      8 C7          1.1630    2.0547   -0.2637 C.cat     1 <0>         0.3976
      9 N2         -0.0112    1.3400   -0.2398 N.pl3     1 <0>        -0.4732
     10 C8          0.0418   -0.0007    0.0293 C.2       1 <0>         0.1314
     11 C9          1.2337   -0.5874    0.2633 C.2       1 <0>        -0.1765
     12 S1          2.3641    0.7857    0.1055 S.3       1 <0>         0.2363
     13 C10        -1.2008   -0.8018    0.0640 C.ar      1 <0>        -0.0886
     14 C11        -1.4901   -1.5990    1.1726 C.ar      1 <0>        -0.0281
     15 C12        -2.6537   -2.3393    1.2011 C.ar      1 <0>        -0.1246
     16 C13        -3.5276   -2.3018    0.1288 C.ar      1 <0>         0.0098
     17 C14        -3.2440   -1.5182   -0.9754 C.ar      1 <0>        -0.6711
     18 C15        -2.0863   -0.7684   -1.0140 C.ar      1 <0>        -0.0048
     19 S2         -4.3632   -1.4780   -2.3357 S.o2      1 <0>         2.6834
     20 O1         -5.6376   -1.8429   -1.8240 O.2       1 <0>        -0.9407
     21 O2         -4.1371   -0.2485   -3.0114 O.2       1 <0>        -0.9525
     22 N3         -3.9096   -2.6816   -3.3787 N.pl3     1 <0>        -0.9921
     23 C16        -2.9476   -2.4148   -4.4567 C.3       1 <0>         0.1152
     24 C17        -1.8049   -3.4367   -4.3557 C.3       1 <0>        -0.1344
     25 C18        -2.3900   -4.8507   -4.3716 C.3       1 <0>        -0.1218
     26 C19        -3.3107   -5.0373   -3.1635 C.3       1 <0>        -0.1358
     27 C20        -4.4662   -4.0350   -3.2475 C.3       1 <0>         0.1134
     28 C21        -1.2927    1.9993   -0.5031 C.3       1 <0>         0.0567
     29 C22        -1.9540    2.3771    0.8239 C.3       1 <0>        -0.1375
     30 C23        -3.2924    3.0655    0.5489 C.3       1 <0>         0.0523
     31 N4         -3.9273    3.4283    1.8230 N.3       1 <0>        -0.5341
     32 C24        -4.3083    2.2284    2.5822 C.3       1 <0>         0.0117
     33 C25        -4.9101    2.6505    3.9252 C.3       1 <0>         0.0610
     34 O3         -6.0220    3.5191    3.6917 O.3       1 <0>        -0.3797
     35 C26        -5.6866    4.6983    2.9552 C.3       1 <0>         0.0604
     36 C27        -5.0927    4.2969    1.6024 C.3       1 <0>         0.0149
     37 H1          6.1982    5.2483   -0.8026 H         1 <0>         0.1421
     38 H2          5.1477    4.2511   -2.7909 H         1 <0>         0.1438
     39 H3          2.8645    3.3471   -2.6591 H         1 <0>         0.1359
     40 H4          2.6854    4.4620    1.4813 H         1 <0>         0.1375
     41 H5          4.9737    5.3497    1.3284 H         1 <0>         0.1440
     42 H6          1.4490   -1.6216    0.4877 H         1 <0>         0.2327
     43 H7         -0.8065   -1.6329    2.0081 H         1 <0>         0.1443
     44 H8         -2.8809   -2.9531    2.0602 H         1 <0>         0.1505
     45 H9         -4.4349   -2.8871    0.1539 H         1 <0>         0.1517
     46 H10        -1.8662   -0.1568   -1.8765 H         1 <0>         0.1426
     47 H11        -3.4515   -2.5106   -5.4298 H         1 <0>         0.0835
     48 H12        -2.5495   -1.3951   -4.3488 H         1 <0>         0.0871
     49 H13        -1.1232   -3.3101   -5.2097 H         1 <0>         0.0790
     50 H14        -1.2519   -3.2770   -3.4183 H         1 <0>         0.0632
     51 H15        -2.9659   -4.9988   -5.2970 H         1 <0>         0.0701
     52 H16        -1.5732   -5.5861   -4.3264 H         1 <0>         0.0691
     53 H17        -3.7113   -6.0617   -3.1626 H         1 <0>         0.0822
     54 H18        -2.7410   -4.8656   -2.2383 H         1 <0>         0.0651
     55 H19        -5.0775   -4.0932   -2.3348 H         1 <0>         0.0931
     56 H20        -5.0925   -4.2604   -4.1232 H         1 <0>         0.0838
     57 H21        -1.1220    2.9077   -1.0994 H         1 <0>         0.1098
     58 H22        -1.9502    1.3143   -1.0585 H         1 <0>         0.1284
     59 H23        -2.1246    1.4687    1.4203 H         1 <0>         0.0844
     60 H24        -1.2966    3.0622    1.3793 H         1 <0>         0.0852
     61 H25        -3.1218    3.9739   -0.0475 H         1 <0>         0.0861
     62 H26        -3.9499    2.3804   -0.0064 H         1 <0>         0.0469
     63 H27        -5.0510    1.6530    2.0101 H         1 <0>         0.0479
     64 H28        -3.4178    1.6066    2.7565 H         1 <0>         0.0832
     65 H29        -5.2481    1.7580    4.4722 H         1 <0>         0.1022
     66 H30        -4.1487    3.1778    4.5187 H         1 <0>         0.0609
     67 H31        -6.5928    5.3011    2.7957 H         1 <0>         0.1054
     68 H32        -4.9496    5.2869    3.5212 H         1 <0>         0.0622
     69 H33        -4.7798    5.1983    1.0552 H         1 <0>         0.0911
     70 H34        -5.8480    3.7548    1.0145 H         1 <0>         0.0499
     71 H35         0.4889    4.0078   -0.6297 H         1 <0>         0.4668
@<TRIPOS>BOND
     1    1    6 ar
     2    1    2 ar
     3    1   37 1
     4    2    3 ar
     5    2   38 1
     6    3    4 ar
     7    3   39 1
     8    4    5 ar
     9    4    7 1
    10    5    6 ar
    11    5   40 1
    12    6   41 1
    13    7    8 2
    14    7   71 1
    15    8   12 1
    16    8    9 1
    17    9   10 1
    18    9   28 1
    19   10   11 2
    20   10   13 1
    21   11   12 1
    22   11   42 1
    23   13   18 ar
    24   13   14 ar
    25   14   15 ar
    26   14   43 1
    27   15   16 ar
    28   15   44 1
    29   16   17 ar
    30   16   45 1
    31   17   18 ar
    32   17   19 1
    33   18   46 1
    34   19   20 2
    35   19   21 2
    36   19   22 1
    37   22   27 1
    38   22   23 1
    39   23   24 1
    40   23   47 1
    41   23   48 1
    42   24   25 1
    43   24   49 1
    44   24   50 1
    45   25   26 1
    46   25   51 1
    47   25   52 1
    48   26   27 1
    49   26   53 1
    50   26   54 1
    51   27   55 1
    52   27   56 1
    53   28   29 1
    54   28   57 1
    55   28   58 1
    56   29   30 1
    57   29   59 1
    58   29   60 1
    59   30   31 1
    60   30   61 1
    61   30   62 1
    62   31   36 1
    63   31   32 1
    64   32   33 1
    65   32   63 1
    66   32   64 1
    67   33   34 1
    68   33   65 1
    69   33   66 1
    70   34   35 1
    71   35   36 1
    72   35   67 1
    73   35   68 1
    74   36   69 1
    75   36   70 1
@<TRIPOS>MOLECULE
ZINC36637582
   73    76     0     0     0
SMALL
USER_CHARGES

@<TRIPOS>ATOM
      1 C1          1.0247    1.8530    1.2040 C.3       1 <0>        -0.1231
      2 C2          0.7855    0.3813    0.9847 C.ar      1 <0>        -0.0726
      3 C3          0.7100   -0.1073   -0.3118 C.ar      1 <0>        -0.0778
      4 C4          0.4906   -1.4573   -0.5149 C.ar      1 <0>        -0.0704
      5 C5          0.3512   -2.2913    0.5663 C.ar      1 <0>        -0.1319
      6 C6          0.4222   -1.8294    1.9004 C.ar      1 <0>         0.0893
      7 C7          0.6531   -0.4445    2.0701 C.ar      1 <0>        -0.0178
      8 C8          0.7485    0.1303    3.4599 C.3       1 <0>        -0.1191
      9 N1          0.2652   -2.7718    2.8550 N.2       1 <0>        -0.4749
     10 C9          0.0595   -4.0368    2.5705 C.2       1 <0>         0.3374
     11 S1          0.0663   -4.0315    0.7833 S.3       1 <0>        -0.0160
     12 N2         -0.1169   -5.1036    3.4350 N.am      1 <0>        -0.5021
     13 C10        -0.3353   -6.4504    2.9014 C.3       1 <0>         0.0674
     14 C11         0.9830   -7.0025    2.3552 C.3       1 <0>        -0.0513
     15 N3          0.7981   -8.4032    1.9533 N.4       1 <0>        -0.3842
     16 C12        -0.1462   -8.4698    0.8300 C.3       1 <0>        -0.0594
     17 C13         2.0897   -8.9690    1.5413 C.3       1 <0>        -0.0504
     18 C14        -0.0879   -4.9031    4.7674 C.2       1 <0>         0.5499
     19 O1          0.0209   -3.7764    5.2103 O.2       1 <0>        -0.4238
     20 C15        -0.1882   -6.0533    5.6901 C.ar      1 <0>        -0.0730
     21 C16         0.4637   -7.2509    5.3910 C.ar      1 <0>        -0.1445
     22 C17         0.3658   -8.3207    6.2565 C.ar      1 <0>        -0.0228
     23 C18        -0.3767   -8.2086    7.4187 C.ar      1 <0>        -0.6509
     24 C19        -1.0253   -7.0244    7.7211 C.ar      1 <0>        -0.0055
     25 C20        -0.9306   -5.9450    6.8673 C.ar      1 <0>        -0.0717
     26 S2         -0.4974   -9.5802    8.5181 S.o2      1 <0>         2.6831
     27 O2         -1.6941   -9.3998    9.2627 O.2       1 <0>        -0.9404
     28 O3         -0.2509  -10.7452    7.7426 O.2       1 <0>        -0.9480
     29 N4          0.7538   -9.4555    9.5957 N.pl3     1 <0>        -0.9890
     30 C21         2.0539  -10.0769    9.3085 C.3       1 <0>         0.1229
     31 C22         3.1484   -9.0129    9.4386 C.3       1 <0>        -0.1082
     32 H1          4.1261   -9.4807    9.3226 H         1 <0>         0.0870
     33 C23         3.0560   -8.3578   10.8186 C.3       1 <0>        -0.1101
     34 C24         1.6959   -7.6726   10.9699 C.3       1 <0>        -0.1088
     35 H2          1.5743   -6.9278   10.1834 H         1 <0>         0.0760
     36 C25         0.5868   -8.7162   10.8544 C.3       1 <0>         0.1204
     37 C26         1.6175   -6.9895   12.3366 C.3       1 <0>        -0.1507
     38 C27         2.9589   -7.9502    8.3543 C.3       1 <0>        -0.1528
     39 H3          2.0968    2.0431    1.2554 H         1 <0>         0.0795
     40 H4          0.5946    2.4182    0.3772 H         1 <0>         0.0759
     41 H5          0.5557    2.1620    2.1382 H         1 <0>         0.0760
     42 H6          0.8212    0.5600   -1.1536 H         1 <0>         0.1464
     43 H7          0.4290   -1.8530   -1.5179 H         1 <0>         0.1385
     44 H8         -0.2429    0.4336    3.7965 H         1 <0>         0.0782
     45 H9          1.1477   -0.6236    4.1383 H         1 <0>         0.0775
     46 H10         1.4097    0.9969    3.4501 H         1 <0>         0.0756
     47 H11        -0.7003   -7.1012    3.6960 H         1 <0>         0.1357
     48 H12        -1.0718   -6.4083    2.0990 H         1 <0>         0.1185
     49 H13         1.2930   -6.4145    1.4914 H         1 <0>         0.1460
     50 H14         1.7493   -6.9444    3.1282 H         1 <0>         0.1458
     51 H15         0.2486   -7.8996   -0.0109 H         1 <0>         0.1291
     52 H16        -0.2834   -9.5092    0.5317 H         1 <0>         0.1349
     53 H17        -1.1046   -8.0500    1.1356 H         1 <0>         0.1252
     54 H18         2.7904   -8.9196    2.3748 H         1 <0>         0.1262
     55 H19         1.9525  -10.0084    1.2431 H         1 <0>         0.1336
     56 H20         2.4845   -8.3988    0.7005 H         1 <0>         0.1269
     57 H21         1.0430   -7.3400    4.4839 H         1 <0>         0.1257
     58 H22         0.8697   -9.2478    6.0264 H         1 <0>         0.1503
     59 H23        -1.6036   -6.9436    8.6297 H         1 <0>         0.1570
     60 H24        -1.4337   -5.0198    7.1068 H         1 <0>         0.1517
     61 H25         2.2397  -10.8811   10.0204 H         1 <0>         0.0833
     62 H26         2.0517  -10.4768    8.2945 H         1 <0>         0.0888
     63 H27         3.1667   -9.1196   11.5903 H         1 <0>         0.0701
     64 H28         3.8492   -7.6175   10.9229 H         1 <0>         0.0687
     65 H29        -0.3830   -8.2187   10.8601 H         1 <0>         0.0921
     66 H30         0.6504   -9.4071   11.6951 H         1 <0>         0.0837
     67 H31         2.4099   -6.2453   12.4169 H         1 <0>         0.0614
     68 H32         0.6487   -6.5017   12.4439 H         1 <0>         0.0596
     69 H33         1.7381   -7.7348   13.1228 H         1 <0>         0.0610
     70 H34         1.9816   -7.4819    8.4714 H         1 <0>         0.0577
     71 H35         3.7379   -7.1934    8.4472 H         1 <0>         0.0599
     72 H36         3.0223   -8.4181    7.3719 H         1 <0>         0.0486
     73 H37         0.4326   -8.9311    2.7316 H         1 <0>         0.4287
@<TRIPOS>BOND
     1    1    2 1
     2    1   39 1
     3    1   40 1
     4    1   41 1
     5    2    7 ar
     6    2    3 ar
     7    3    4 ar
     8    3   42 1
     9    4    5 ar
    10    4   43 1
    11    5   11 1
    12    5    6 ar
    13    6    7 ar
    14    6    9 1
    15    7    8 1
    16    8   44 1
    17    8   45 1
    18    8   46 1
    19    9   10 2
    20   10   11 1
    21   10   12 1
    22   12   13 1
    23   12   18 am
    24   13   14 1
    25   13   47 1
    26   13   48 1
    27   14   15 1
    28   14   49 1
    29   14   50 1
    30   15   16 1
    31   15   17 1
    32   15   73 1
    33   16   51 1
    34   16   52 1
    35   16   53 1
    36   17   54 1
    37   17   55 1
    38   17   56 1
    39   18   19 2
    40   18   20 1
    41   20   25 ar
    42   20   21 ar
    43   21   22 ar
    44   21   57 1
    45   22   23 ar
    46   22   58 1
    47   23   24 ar
    48   23   26 1
    49   24   25 ar
    50   24   59 1
    51   25   60 1
    52   26   27 2
    53   26   28 2
    54   26   29 1
    55   29   36 1
    56   29   30 1
    57   30   31 1
    58   30   61 1
    59   30   62 1
    60   31   32 1
    61   31   33 1
    62   31   38 1
    63   33   34 1
    64   33   63 1
    65   33   64 1
    66   34   35 1
    67   34   36 1
    68   34   37 1
    69   36   65 1
    70   36   66 1
    71   37   67 1
    72   37   68 1
    73   37   69 1
    74   38   70 1
    75   38   71 1
    76   38   72 1
@<TRIPOS>MOLECULE
ZINC38847418
   73    76     0     0     0
SMALL
USER_CHARGES

@<TRIPOS>ATOM
      1 C1          1.1698  -16.1177   -6.4680 C.3       1 <0>        -0.1284
      2 C2          1.3881  -14.6931   -6.0276 C.ar      1 <0>        -0.0241
      3 C3          0.3920  -14.0204   -5.3449 C.ar      1 <0>        -0.1415
      4 C4          0.5922  -12.7136   -4.9409 C.ar      1 <0>        -0.0163
      5 C5          1.7887  -12.0797   -5.2194 C.ar      1 <0>        -0.6865
      6 C6          2.7851  -12.7528   -5.9013 C.ar      1 <0>        -0.0165
      7 C7          2.5865  -14.0610   -6.3015 C.ar      1 <0>        -0.1412
      8 S1          2.0435  -10.4137   -4.7055 S.o2      1 <0>         2.6892
      9 O1          3.0367   -9.8711   -5.5648 O.2       1 <0>        -0.9496
     10 O2          0.7554   -9.8302   -4.5661 O.2       1 <0>        -0.9494
     11 N1          2.7065  -10.4650   -3.1889 N.pl3     1 <0>        -0.9992
     12 C8          1.8480  -10.4736   -1.9965 C.3       1 <0>         0.1164
     13 C9          2.2852   -9.3380   -1.0660 C.3       1 <0>        -0.1101
     14 C10         3.7794   -9.4766   -0.7656 C.3       1 <0>        -0.1239
     15 C11         4.5755   -9.3674   -2.0681 C.3       1 <0>        -0.1335
     16 C12         4.1642  -10.5090   -3.0102 C.3       1 <0>         0.1226
     17 C13         4.2058   -8.3807    0.1768 C.2       1 <0>         0.5307
     18 O3          3.5963   -7.3326    0.2034 O.2       1 <0>        -0.4813
     19 N2          5.2646   -8.5654    0.9901 N.am      1 <0>        -0.5051
     20 C14         5.6001   -7.5552    1.9966 C.3       1 <0>         0.1163
     21 C15         4.7666   -7.7947    3.2571 C.3       1 <0>        -0.1685
     22 C16         5.0577   -6.6929    4.2780 C.3       1 <0>        -0.0052
     23 N3          4.2575   -6.9228    5.4883 N.4       1 <0>        -0.3865
     24 C17         4.6888   -8.1716    6.1305 C.3       1 <0>        -0.0527
     25 C18         4.4456   -5.8027    6.4198 C.3       1 <0>        -0.0473
     26 C19         6.0356   -9.7106    0.8742 C.2       1 <0>         0.3409
     27 N4          7.0160  -10.1242    1.6428 N.2       1 <0>        -0.5272
     28 C20         7.6867  -11.2728    1.4088 C.ar      1 <0>         0.1006
     29 C21         8.7539  -11.8279    2.1526 C.ar      1 <0>        -0.0751
     30 C22         9.3287  -13.0129    1.7745 C.ar      1 <0>        -0.0630
     31 C23         8.8892  -13.7081    0.6571 C.ar      1 <0>        -0.0966
     32 C24         7.8474  -13.1949   -0.0933 C.ar      1 <0>        -0.0202
     33 C25         7.2657  -12.0082    0.2775 C.ar      1 <0>        -0.1839
     34 S2          5.9432  -11.0045   -0.3552 S.3       1 <0>         0.0695
     35 C26         7.3538  -13.9337   -1.3105 C.3       1 <0>        -0.1213
     36 C27        10.4646  -13.5736    2.5909 C.3       1 <0>        -0.1197
     37 H1          1.4979  -16.7959   -5.6802 H         1 <0>         0.0809
     38 H2          0.1102  -16.2781   -6.6673 H         1 <0>         0.0751
     39 H3          1.7432  -16.3096   -7.3748 H         1 <0>         0.0751
     40 H4         -0.5428  -14.5156   -5.1273 H         1 <0>         0.1344
     41 H5         -0.1863  -12.1878   -4.4082 H         1 <0>         0.1394
     42 H6          3.7198  -12.2575   -6.1191 H         1 <0>         0.1395
     43 H7          3.3664  -14.5880   -6.8310 H         1 <0>         0.1345
     44 H8          0.8097  -10.3241   -2.2928 H         1 <0>         0.1058
     45 H9          1.9490  -11.4284   -1.4804 H         1 <0>         0.0764
     46 H10         2.0987   -8.3791   -1.5496 H         1 <0>         0.0909
     47 H11         1.7204   -9.3925   -0.1353 H         1 <0>         0.0838
     48 H12         3.9687  -10.4459   -0.3045 H         1 <0>         0.1116
     49 H13         4.3675   -8.4082   -2.5423 H         1 <0>         0.0918
     50 H14         5.6410   -9.4427   -1.8507 H         1 <0>         0.0929
     51 H15         4.4502  -11.4666   -2.5750 H         1 <0>         0.0767
     52 H16         4.6546  -10.3828   -3.9754 H         1 <0>         0.1084
     53 H17         6.6596   -7.6254    2.2428 H         1 <0>         0.1089
     54 H18         5.3840   -6.5626    1.6013 H         1 <0>         0.1082
     55 H19         3.7074   -7.7813    3.0003 H         1 <0>         0.0929
     56 H20         5.0246   -8.7635    3.6847 H         1 <0>         0.0955
     57 H21         6.1169   -6.7062    4.5349 H         1 <0>         0.1348
     58 H22         4.7997   -5.7240    3.8505 H         1 <0>         0.1362
     59 H23         4.0950   -8.3422    7.0285 H         1 <0>         0.1255
     60 H24         4.5492   -9.0027    5.4393 H         1 <0>         0.1224
     61 H25         5.7422   -8.0964    6.4004 H         1 <0>         0.1241
     62 H26         4.1255   -4.8761    5.9433 H         1 <0>         0.1248
     63 H27         3.8518   -5.9733    7.3178 H         1 <0>         0.1254
     64 H28         5.4990   -5.7275    6.6896 H         1 <0>         0.1230
     65 H29         9.1200  -11.3119    3.0279 H         1 <0>         0.1305
     66 H30         9.3563  -14.6405    0.3761 H         1 <0>         0.1411
     67 H31         6.5618  -14.6241   -1.0201 H         1 <0>         0.0795
     68 H32         6.9650  -13.2193   -2.0362 H         1 <0>         0.0678
     69 H33         8.1774  -14.4919   -1.7555 H         1 <0>         0.0798
     70 H34        10.0659  -14.2213    3.3716 H         1 <0>         0.0769
     71 H35        11.1271  -14.1492    1.9444 H         1 <0>         0.0747
     72 H36        11.0225  -12.7558    3.0470 H         1 <0>         0.0707
     73 H37         3.2823   -6.9924    5.2385 H         1 <0>         0.4276
@<TRIPOS>BOND
     1    1    2 1
     2    1   37 1
     3    1   38 1
     4    1   39 1
     5    2    7 ar
     6    2    3 ar
     7    3    4 ar
     8    3   40 1
     9    4    5 ar
    10    4   41 1
    11    5    6 ar
    12    5    8 1
    13    6    7 ar
    14    6   42 1
    15    7   43 1
    16    8    9 2
    17    8   10 2
    18    8   11 1
    19   11   16 1
    20   11   12 1
    21   12   13 1
    22   12   44 1
    23   12   45 1
    24   13   14 1
    25   13   46 1
    26   13   47 1
    27   14   15 1
    28   14   17 1
    29   14   48 1
    30   15   16 1
    31   15   49 1
    32   15   50 1
    33   16   51 1
    34   16   52 1
    35   17   18 2
    36   17   19 am
    37   19   20 1
    38   19   26 1
    39   20   21 1
    40   20   53 1
    41   20   54 1
    42   21   22 1
    43   21   55 1
    44   21   56 1
    45   22   23 1
    46   22   57 1
    47   22   58 1
    48   23   24 1
    49   23   25 1
    50   23   73 1
    51   24   59 1
    52   24   60 1
    53   24   61 1
    54   25   62 1
    55   25   63 1
    56   25   64 1
    57   26   34 1
    58   26   27 2
    59   27   28 1
    60   28   33 ar
    61   28   29 ar
    62   29   30 ar
    63   29   65 1
    64   30   31 ar
    65   30   36 1
    66   31   32 ar
    67   31   66 1
    68   32   33 ar
    69   32   35 1
    70   33   34 1
    71   35   67 1
    72   35   68 1
    73   35   69 1
    74   36   70 1
    75   36   71 1
    76   36   72 1
@<TRIPOS>MOLECULE
ZINC63350669
   66    71     0     0     0
SMALL
USER_CHARGES

@<TRIPOS>ATOM
      1 C1          3.0294    0.7813    0.2886 C.3       1 <0>        -0.1222
      2 C2          3.1125   -0.7128    0.4664 C.ar      1 <0>         0.0127
      3 C3          3.6369   -1.4925   -0.5450 C.ar      1 <0>        -0.1694
      4 C4          3.7182   -2.8696   -0.3919 C.ar      1 <0>         0.1982
      5 C5          3.2629   -3.4597    0.7985 C.ar      1 <0>        -0.1781
      6 C6          3.3539   -4.9207    0.9497 C.2       1 <0>         0.0860
      7 C7          3.8884   -5.6465   -0.0982 C.2       1 <0>        -0.2469
      8 C8          4.3203   -4.9755   -1.2550 C.2       1 <0>         0.5112
      9 O1          4.7898   -5.6225   -2.1745 O.2       1 <0>        -0.4524
     10 O2          4.2291   -3.6418   -1.3752 O.3       1 <0>        -0.2684
     11 C9          2.8887   -5.5911    2.1840 C.ar      1 <0>        -0.0601
     12 C10         1.5359   -5.5687    2.5264 C.ar      1 <0>        -0.0715
     13 C11         1.1087   -6.1957    3.6786 C.ar      1 <0>        -0.0654
     14 C12         2.0182   -6.8454    4.4942 C.ar      1 <0>        -0.1046
     15 C13         3.3608   -6.8709    4.1607 C.ar      1 <0>        -0.1169
     16 C14         3.8000   -6.2535    3.0078 C.ar      1 <0>        -0.1008
     17 C15         2.7320   -2.6596    1.8187 C.ar      1 <0>         0.1947
     18 C16         2.6672   -1.2878    1.6447 C.ar      1 <0>        -0.2412
     19 O3          2.2902   -3.2245    2.9710 O.3       1 <0>        -0.2565
     20 C17         1.7622   -2.3436    3.9646 C.3       1 <0>         0.0357
     21 C18         1.3250   -3.1439    5.1644 C.2       1 <0>         0.5083
     22 O4          1.4530   -4.3499    5.1682 O.2       1 <0>        -0.4193
     23 N1          0.7919   -2.5194    6.2331 N.am      1 <0>        -0.6214
     24 C19         1.0379   -1.0830    6.4353 C.3       1 <0>         0.1222
     25 C20        -0.3187   -0.3702    6.4421 C.3       1 <0>         0.0672
     26 H1         -0.7473   -0.3531    5.4401 H         1 <0>         0.1775
     27 C21        -1.2148   -1.1493    7.3963 C.2       1 <0>         0.0646
     28 C22        -1.6456   -0.2785    8.3015 C.ar      1 <0>        -0.1529
     29 C23        -2.5848   -0.4186    9.4259 C.ar      1 <0>         0.0013
     30 C24        -2.7949    0.6969   10.1738 C.ar      1 <0>        -0.1563
     31 C25        -2.1722    1.9226    9.9186 C.ar      1 <0>         0.0614
     32 C26        -1.2987    2.1428    8.9039 C.ar      1 <0>        -0.2068
     33 C27        -1.0007    1.0452    8.0449 C.ar      1 <0>         0.3370
     34 N2         -0.2180    0.9870    6.9820 N.pl3     1 <0>        -0.5863
     35 C28        -1.4259   -2.6387    7.2756 C.3       1 <0>        -0.0924
     36 C29        -0.0331   -3.2769    7.1801 C.3       1 <0>         0.1625
     37 H2          0.4377   -3.2647    8.1631 H         1 <0>         0.1242
     38 C30        -0.1665   -4.7004    6.7038 C.2       1 <0>         0.4667
     39 O5         -0.4526   -4.9278    5.5521 O.2       1 <0>        -0.4621
     40 O6          0.0325   -5.7157    7.5589 O.3       1 <0>        -0.3438
     41 C31        -0.1104   -7.0391    7.0392 C.3       1 <0>         0.0186
     42 H3          3.9489    1.2419    0.6497 H         1 <0>         0.0844
     43 H4          2.8968    1.0146   -0.7679 H         1 <0>         0.0805
     44 H5          2.1824    1.1682    0.8552 H         1 <0>         0.0717
     45 H6          3.9843   -1.0302   -1.4572 H         1 <0>         0.1501
     46 H7          3.9737   -6.7208   -0.0284 H         1 <0>         0.1678
     47 H8          0.8251   -5.0613    1.8910 H         1 <0>         0.1096
     48 H9          0.0621   -6.1791    3.9447 H         1 <0>         0.1274
     49 H10         1.6787   -7.3344    5.3953 H         1 <0>         0.1166
     50 H11         4.0657   -7.3794    4.8017 H         1 <0>         0.1184
     51 H12         4.8475   -6.2782    2.7460 H         1 <0>         0.1183
     52 H13         2.2634   -0.6643    2.4287 H         1 <0>         0.1334
     53 H14         2.5309   -1.6309    4.2637 H         1 <0>         0.0940
     54 H15         0.9071   -1.8054    3.5556 H         1 <0>         0.0969
     55 H16         1.5421   -0.9258    7.3889 H         1 <0>         0.1079
     56 H17         1.6538   -0.6964    5.6234 H         1 <0>         0.1238
     57 H18        -3.0789   -1.3538    9.6440 H         1 <0>         0.1724
     58 H19        -3.4782    0.6332   11.0078 H         1 <0>         0.1578
     59 H20        -2.4024    2.7502   10.5733 H         1 <0>         0.1603
     60 H21        -0.8471    3.1121    8.7529 H         1 <0>         0.1708
     61 H22        -1.9499   -3.0134    8.1549 H         1 <0>         0.1341
     62 H23        -1.9986   -2.8623    6.3756 H         1 <0>         0.1362
     63 H24        -1.1226   -7.1721    6.6572 H         1 <0>         0.0646
     64 H25         0.6056   -7.1917    6.2317 H         1 <0>         0.0826
     65 H26         0.0766   -7.7631    7.8323 H         1 <0>         0.1071
     66 H27         0.3300    1.7016    6.6216 H         1 <0>         0.4594
@<TRIPOS>BOND
     1    1    2 1
     2    1   42 1
     3    1   43 1
     4    1   44 1
     5    2   18 ar
     6    2    3 ar
     7    3    4 ar
     8    3   45 1
     9    4   10 1
    10    4    5 ar
    11    5    6 1
    12    5   17 ar
    13    6    7 2
    14    6   11 1
    15    7    8 1
    16    7   46 1
    17    8    9 2
    18    8   10 1
    19   11   16 ar
    20   11   12 ar
    21   12   13 ar
    22   12   47 1
    23   13   14 ar
    24   13   48 1
    25   14   15 ar
    26   14   49 1
    27   15   16 ar
    28   15   50 1
    29   16   51 1
    30   17   18 ar
    31   17   19 1
    32   18   52 1
    33   19   20 1
    34   20   21 1
    35   20   53 1
    36   20   54 1
    37   21   22 2
    38   21   23 am
    39   23   36 1
    40   23   24 1
    41   24   25 1
    42   24   55 1
    43   24   56 1
    44   25   26 1
    45   25   34 1
    46   25   27 1
    47   27   28 2
    48   27   35 1
    49   28   33 ar
    50   28   29 ar
    51   29   30 ar
    52   29   57 1
    53   30   31 ar
    54   30   58 1
    55   31   32 ar
    56   31   59 1
    57   32   33 ar
    58   32   60 1
    59   33   34 2
    60   34   66 1
    61   35   36 1
    62   35   61 1
    63   35   62 1
    64   36   37 1
    65   36   38 1
    66   38   39 2
    67   38   40 1
    68   40   41 1
    69   41   63 1
    70   41   64 1
    71   41   65 1
@<TRIPOS>MOLECULE
ZINC14274844
   55    57     0     0     0
SMALL
USER_CHARGES
butyl 4-[(4-bromo-3-methoxy-naphthalene-2-carbonyl)carbamothioylamino]benzoate
@<TRIPOS>ATOM
      1 C1         -8.9234   -4.5848   -3.9978 C.3       1 <0>        -0.1524
      2 C2         -8.8811   -3.6867   -2.7599 C.3       1 <0>        -0.1224
      3 C3         -7.5445   -2.9435   -2.7145 C.3       1 <0>        -0.1210
      4 C4         -7.5021   -2.0454   -1.4765 C.3       1 <0>         0.0673
      5 O1         -6.2336   -1.3401   -1.4334 O.3       1 <0>        -0.3518
      6 C5         -6.0347   -0.5016   -0.3974 C.2       1 <0>         0.5108
      7 O2         -6.8977   -0.3637    0.4468 O.2       1 <0>        -0.5053
      8 C6         -4.7701    0.2483   -0.2883 C.ar      1 <0>        -0.1215
      9 C7         -4.5620    1.1188    0.7860 C.ar      1 <0>        -0.0449
     10 C8         -3.3801    1.8170    0.8849 C.ar      1 <0>        -0.1327
     11 C9         -2.3926    1.6573   -0.0828 C.ar      1 <0>         0.1605
     12 C10        -2.5986    0.7961   -1.1564 C.ar      1 <0>        -0.0888
     13 C11        -3.7758    0.0904   -1.2587 C.ar      1 <0>        -0.0497
     14 N1         -1.1974    2.3657    0.0206 N.pl3     1 <0>        -0.6249
     15 C12        -0.0266    1.7550   -0.2495 C.2       1 <0>         0.5061
     16 S1          0.0065    0.0758   -0.5809 S.2       1 <0>        -0.4630
     17 N2          1.1174    2.4675   -0.2640 N.am      1 <0>        -0.6389
     18 C13         2.2874    1.8579   -0.5395 C.2       1 <0>         0.5317
     19 O3          2.3109    0.6655   -0.7749 O.2       1 <0>        -0.3721
     20 C14         3.5395    2.6376   -0.5555 C.ar      1 <0>        -0.1506
     21 C15         3.5076    3.9971   -0.2864 C.ar      1 <0>        -0.0340
     22 C16         4.7006    4.7329   -0.3025 C.ar      1 <0>        -0.0652
     23 C17         4.7049    6.1141   -0.0335 C.ar      1 <0>        -0.0927
     24 C18         5.8790    6.8011   -0.0562 C.ar      1 <0>        -0.1129
     25 C19         7.0818    6.1570   -0.3425 C.ar      1 <0>        -0.0861
     26 C20         7.1171    4.8225   -0.6072 C.ar      1 <0>        -0.1178
     27 C21         5.9251    4.0775   -0.5939 C.ar      1 <0>         0.0028
     28 C22         5.9309    2.6984   -0.8632 C.ar      1 <0>        -0.1141
     29 C23         4.7624    1.9939   -0.8387 C.ar      1 <0>         0.1878
     30 O4          4.7763    0.6608   -1.0948 O.3       1 <0>        -0.3107
     31 C24         4.6202    0.2603   -2.4577 C.3       1 <0>         0.0470
     32 Br1         7.5584    1.8174   -1.2516 Br        1 <0>        -0.0127
     33 H1         -8.8170   -3.9735   -4.8940 H         1 <0>         0.0561
     34 H2         -8.1079   -5.3064   -3.9513 H         1 <0>         0.0566
     35 H3         -9.8757   -5.1142   -4.0302 H         1 <0>         0.0577
     36 H4         -8.9875   -4.2980   -1.8637 H         1 <0>         0.0659
     37 H5         -9.6966   -2.9651   -2.8064 H         1 <0>         0.0656
     38 H6         -7.4380   -2.3322   -3.6106 H         1 <0>         0.0753
     39 H7         -6.7289   -3.6651   -2.6679 H         1 <0>         0.0760
     40 H8         -7.6085   -2.6567   -0.5803 H         1 <0>         0.0721
     41 H9         -8.3177   -1.3238   -1.5230 H         1 <0>         0.0717
     42 H10        -5.3277    1.2429    1.5374 H         1 <0>         0.1448
     43 H11        -3.2186    2.4892    1.7146 H         1 <0>         0.1370
     44 H12        -1.8321    0.6782   -1.9081 H         1 <0>         0.1485
     45 H13        -3.9332   -0.5810   -2.0897 H         1 <0>         0.1457
     46 H14        -1.2078    3.2984    0.2869 H         1 <0>         0.4100
     47 H15         1.0986    3.4189   -0.0762 H         1 <0>         0.4080
     48 H16         2.5702    4.4858   -0.0656 H         1 <0>         0.1385
     49 H17         3.7807    6.6264    0.1895 H         1 <0>         0.1359
     50 H18         5.8793    7.8610    0.1510 H         1 <0>         0.1325
     51 H19         7.9998    6.7258   -0.3541 H         1 <0>         0.1334
     52 H20         8.0569    4.3380   -0.8273 H         1 <0>         0.1403
     53 H21         3.6634    0.6211   -2.8351 H         1 <0>         0.0507
     54 H22         5.4287    0.6818   -3.0550 H         1 <0>         0.0464
     55 H23         4.6495   -0.8274   -2.5224 H         1 <0>         0.1035
@<TRIPOS>BOND
     1    1    2 1
     2    1   33 1
     3    1   34 1
     4    1   35 1
     5    2    3 1
     6    2   36 1
     7    2   37 1
     8    3    4 1
     9    3   38 1
    10    3   39 1
    11    4    5 1
    12    4   40 1
    13    4   41 1
    14    5    6 1
    15    6    7 2
    16    6    8 1
    17    8   13 ar
    18    8    9 ar
    19    9   10 ar
    20    9   42 1
    21   10   11 ar
    22   10   43 1
    23   11   12 ar
    24   11   14 1
    25   12   13 ar
    26   12   44 1
    27   13   45 1
    28   14   15 1
    29   14   46 1
    30   15   16 2
    31   15   17 1
    32   17   18 am
    33   17   47 1
    34   18   19 2
    35   18   20 1
    36   20   29 ar
    37   20   21 ar
    38   21   22 ar
    39   21   48 1
    40   22   27 ar
    41   22   23 ar
    42   23   24 ar
    43   23   49 1
    44   24   25 ar
    45   24   50 1
    46   25   26 ar
    47   25   51 1
    48   26   27 ar
    49   26   52 1
    50   27   28 ar
    51   28   29 ar
    52   28   32 1
    53   29   30 1
    54   30   31 1
    55   31   53 1
    56   31   54 1
    57   31   55 1
@<TRIPOS>MOLECULE
ZINC21882598
   76    79     0     0     0
SMALL
USER_CHARGES
3-[(7S)-7-tert-butyl-4-oxo-5,6,7,8-tetrahydro-3H-benzothiopheno[2,3-d]pyrimidin-2-yl]-N-[3-(ethyl-(m-tolyl)amino)propyl]propanamide
@<TRIPOS>ATOM
      1 C1         -1.7785    6.1960    1.4944 C.3       1 <0>        -0.1749
      2 C2         -1.3475    5.9543    0.0464 C.3       1 <0>         0.1174
      3 N1         -0.0690    5.2391    0.0304 N.pl3     1 <0>        -0.6268
      4 C3          1.1896    5.9888    0.0219 C.3       1 <0>         0.1258
      5 C4          1.6137    6.2571   -1.4234 C.3       1 <0>        -0.1510
      6 C5          2.9282    7.0400   -1.4323 C.3       1 <0>         0.1231
      7 N2          3.3342    7.2969   -2.8163 N.am      1 <0>        -0.7404
      8 C6          4.4703    7.9762   -3.0702 C.2       1 <0>         0.5137
      9 O1          5.1563    8.3749   -2.1530 O.2       1 <0>        -0.5474
     10 C7          4.8880    8.2404   -4.4938 C.3       1 <0>        -0.1254
     11 C8          6.2024    9.0234   -4.5027 C.3       1 <0>        -0.0602
     12 C9          6.6202    9.2876   -5.9263 C.2       1 <0>         0.4143
     13 N3          7.7641    9.9780   -6.1685 N.am      1 <0>        -0.6487
     14 H1          8.3742   10.3434   -5.3293 H         1 <0>         0.4503
     15 C10         8.1771   10.2307   -7.4245 C.2       1 <0>         0.5559
     16 O2          9.2087   10.8481   -7.6252 O.2       1 <0>        -0.5229
     17 C11         7.3799    9.7671   -8.5220 C.2       1 <0>        -0.2509
     18 C12         7.6259    9.9274   -9.9546 C.2       1 <0>        -0.0499
     19 C13         6.7148    9.3937  -10.7954 C.2       1 <0>        -0.1681
     20 S1          5.4937    8.6573   -9.7424 S.3       1 <0>         0.1396
     21 C14         6.2131    9.0690   -8.1730 C.2       1 <0>         0.1075
     22 N4          5.8727    8.8530   -6.9054 N.2       1 <0>        -0.4930
     23 C15         6.7369    9.4204  -12.2933 C.3       1 <0>        -0.0363
     24 C16         8.1460    9.8250  -12.7496 C.3       1 <0>        -0.0690
     25 H2          8.8502    8.9967  -12.5820 H         1 <0>         0.0776
     26 C17         8.5872   11.0540  -11.9495 C.3       1 <0>        -0.1208
     27 C18         8.8499   10.6612  -10.4955 C.3       1 <0>        -0.0601
     28 C19         8.1247   10.1642  -14.2414 C.3       1 <0>        -0.0619
     29 C20         7.1582   11.3245  -14.4868 C.3       1 <0>        -0.1501
     30 C21         9.5300   10.5668  -14.6929 C.3       1 <0>        -0.1467
     31 C22         7.6647    8.9404  -15.0362 C.3       1 <0>        -0.1471
     32 C23        -0.0501    3.8425    0.0232 C.ar      1 <0>         0.2198
     33 C24         1.1615    3.1627    0.0080 C.ar      1 <0>        -0.2037
     34 C25         1.1766    1.7820    0.0004 C.ar      1 <0>        -0.0691
     35 C26        -0.0126    1.0758    0.0080 C.ar      1 <0>        -0.1800
     36 C27        -1.2201    1.7492    0.0174 C.ar      1 <0>        -0.0395
     37 C28        -1.2424    3.1302    0.0307 C.ar      1 <0>        -0.1974
     38 C29        -2.5133    0.9755    0.0188 C.3       1 <0>        -0.1190
     39 H3         -2.7384    6.7330    1.5064 H         1 <0>         0.0647
     40 H4         -1.0150    6.7982    2.0085 H         1 <0>         0.0566
     41 H5         -1.8919    5.2305    2.0092 H         1 <0>         0.0592
     42 H6         -2.1110    5.3521   -0.4677 H         1 <0>         0.0761
     43 H7         -1.2341    6.9197   -0.4684 H         1 <0>         0.0736
     44 H8          1.0501    6.9454    0.5467 H         1 <0>         0.0774
     45 H9          1.9692    5.4022    0.5299 H         1 <0>         0.0796
     46 H10         1.7531    5.3005   -1.9482 H         1 <0>         0.0752
     47 H11         0.8341    6.8437   -1.9314 H         1 <0>         0.0721
     48 H12         2.7888    7.9966   -0.9075 H         1 <0>         0.0671
     49 H13         3.7078    6.4534   -0.9243 H         1 <0>         0.0675
     50 H14         2.7119    6.9354   -3.6482 H         1 <0>         0.4246
     51 H15         5.0275    7.2837   -5.0185 H         1 <0>         0.1079
     52 H16         4.1084    8.8269   -5.0019 H         1 <0>         0.1076
     53 H17         6.0628    9.9801   -3.9780 H         1 <0>         0.1139
     54 H18         6.9821    8.4369   -3.9946 H         1 <0>         0.1141
     55 H19         6.4877    8.4218  -12.6815 H         1 <0>         0.0846
     56 H20         5.9990   10.1502  -12.6580 H         1 <0>         0.0911
     57 H21         9.5093   11.4645  -12.3868 H         1 <0>         0.0766
     58 H22         7.7950   11.8165  -11.9820 H         1 <0>         0.0683
     59 H23         9.0324   11.5633   -9.8931 H         1 <0>         0.0859
     60 H24         9.7275   10.0002  -10.4410 H         1 <0>         0.0778
     61 H25         7.1429   11.5684  -15.5593 H         1 <0>         0.0554
     62 H26         7.4890   12.2043  -13.9154 H         1 <0>         0.0592
     63 H27         6.1479   11.0350  -14.1621 H         1 <0>         0.0582
     64 H28         9.5147   10.8107  -15.7654 H         1 <0>         0.0560
     65 H29        10.2249    9.7325  -14.5164 H         1 <0>         0.0555
     66 H30         9.8607   11.4466  -14.1215 H         1 <0>         0.0601
     67 H31         7.6494    9.1843  -16.1087 H         1 <0>         0.0562
     68 H32         6.6544    8.6509  -14.7115 H         1 <0>         0.0574
     69 H33         8.3597    8.1062  -14.8597 H         1 <0>         0.0557
     70 H34         2.0904    3.7136    0.0017 H         1 <0>         0.1197
     71 H35         2.1181    1.2530   -0.0118 H         1 <0>         0.1193
     72 H36         0.0021   -0.0041    0.0020 H         1 <0>         0.1164
     73 H37        -2.1859    3.6556    0.0425 H         1 <0>         0.1206
     74 H38        -3.3604    1.6772    0.0267 H         1 <0>         0.0632
     75 H39        -2.5576    0.3371    0.9135 H         1 <0>         0.0706
     76 H40        -2.5658    0.3475   -0.8828 H         1 <0>         0.0706
@<TRIPOS>BOND
     1    1    2 1
     2    1   39 1
     3    1   40 1
     4    1   41 1
     5    2    3 1
     6    2   42 1
     7    2   43 1
     8    3    4 1
     9    3   32 1
    10    4    5 1
    11    4   44 1
    12    4   45 1
    13    5    6 1
    14    5   46 1
    15    5   47 1
    16    6    7 1
    17    6   48 1
    18    6   49 1
    19    7    8 am
    20    7   50 1
    21    8    9 2
    22    8   10 1
    23   10   11 1
    24   10   51 1
    25   10   52 1
    26   11   12 1
    27   11   53 1
    28   11   54 1
    29   12   22 2
    30   12   13 1
    31   13   14 1
    32   13   15 am
    33   15   16 2
    34   15   17 1
    35   17   21 2
    36   17   18 1
    37   18   27 1
    38   18   19 2
    39   19   20 1
    40   19   23 1
    41   20   21 1
    42   21   22 1
    43   23   24 1
    44   23   55 1
    45   23   56 1
    46   24   25 1
    47   24   26 1
    48   24   28 1
    49   26   27 1
    50   26   57 1
    51   26   58 1
    52   27   59 1
    53   27   60 1
    54   28   29 1
    55   28   30 1
    56   28   31 1
    57   29   61 1
    58   29   62 1
    59   29   63 1
    60   30   64 1
    61   30   65 1
    62   30   66 1
    63   31   67 1
    64   31   68 1
    65   31   69 1
    66   32   37 ar
    67   32   33 ar
    68   33   34 ar
    69   33   70 1
    70   34   35 ar
    71   34   71 1
    72   35   36 ar
    73   35   72 1
    74   36   37 ar
    75   36   38 1
    76   37   73 1
    77   38   74 1
    78   38   75 1
    79   38   76 1
@<TRIPOS>MOLECULE
ZINC38649577
   69    72     0     0     0
SMALL
USER_CHARGES

@<TRIPOS>ATOM
      1 C1          0.4721    1.5556    0.2010 C.3       1 <0>        -0.1447
      2 C2          0.4758    0.0256    0.1927 C.3       1 <0>        -0.0587
      3 C3         -0.9596   -0.4886    0.3192 C.3       1 <0>        -0.1442
      4 C4          1.0744   -0.4683   -1.0991 C.ar      1 <0>        -0.0733
      5 C5          0.4940   -0.1246   -2.3057 C.ar      1 <0>        -0.1126
      6 C6          1.0431   -0.5776   -3.4907 C.ar      1 <0>        -0.1083
      7 C7          2.1728   -1.3740   -3.4691 C.ar      1 <0>        -0.0821
      8 C8          2.7537   -1.7169   -2.2625 C.ar      1 <0>        -0.0966
      9 C9          2.2071   -1.2604   -1.0777 C.ar      1 <0>        -0.1154
     10 C10         2.7708   -1.8687   -4.7609 C.3       1 <0>         0.0842
     11 H1          2.1791   -1.4979   -5.5979 H         1 <0>         0.1019
     12 C11         2.7605   -3.3744   -4.7709 C.ar      1 <0>        -0.1125
     13 C12         1.5754   -4.0452   -5.0163 C.ar      1 <0>        -0.0606
     14 C13         1.5470   -5.4256   -5.0292 C.ar      1 <0>        -0.1199
     15 C14         2.7105   -6.1455   -4.7958 C.ar      1 <0>         0.1159
     16 C15         3.8985   -5.4770   -4.5500 C.ar      1 <0>        -0.1290
     17 C16         3.9252   -4.0883   -4.5366 C.ar      1 <0>         0.1344
     18 O1          5.0962   -3.4489   -4.2949 O.3       1 <0>        -0.2428
     19 C17         5.2425   -2.1616   -4.6503 C.2       1 <0>         0.4404
     20 C18         4.1799   -1.3610   -4.8838 C.2       1 <0>        -0.2753
     21 C19         4.4041    0.0028   -5.2586 C.1       1 <0>         0.2726
     22 N1          4.5820    1.0847   -5.5559 N.1       1 <0>        -0.4428
     23 N2          6.5080   -1.6456   -4.7778 N.pl3     1 <0>        -0.8299
     24 O2          2.6841   -7.5044   -4.8079 O.3       1 <0>        -0.2869
     25 C20         2.8624   -8.1488   -3.6435 C.2       1 <0>         0.4605
     26 O3          2.9355   -7.5236   -2.6121 O.2       1 <0>        -0.4559
     27 C21         2.9713   -9.6517   -3.6230 C.3       1 <0>         0.0740
     28 O4          3.1560  -10.0976   -2.2780 O.3       1 <0>        -0.2955
     29 C22         3.2733  -11.4374   -2.0828 C.ar      1 <0>         0.1209
     30 C23         3.2175  -12.3046   -3.1642 C.ar      1 <0>        -0.2053
     31 C24         3.3374  -13.6661   -2.9631 C.ar      1 <0>        -0.0745
     32 C25         3.5124  -14.1646   -1.6854 C.ar      1 <0>        -0.1014
     33 C26         3.5679  -13.3024   -0.6059 C.ar      1 <0>        -0.0803
     34 C27         3.4547  -11.9397   -0.8024 C.ar      1 <0>        -0.1404
     35 C28         3.6424  -15.6503   -1.4689 C.3       1 <0>        -0.0271
     36 C29         4.8556  -16.1739   -2.2402 C.3       1 <0>        -0.1397
     37 C30         3.8255  -15.9342    0.0234 C.3       1 <0>        -0.1469
     38 C31         2.3782  -16.3513   -1.9700 C.3       1 <0>        -0.1398
     39 H2          1.4947    1.9219    0.1109 H         1 <0>         0.0553
     40 H3         -0.1203    1.9220   -0.6374 H         1 <0>         0.0567
     41 H4          0.0391    1.9128    1.1354 H         1 <0>         0.0584
     42 H5          1.0682   -0.3408    1.0311 H         1 <0>         0.0768
     43 H6         -1.5520   -0.1222   -0.5192 H         1 <0>         0.0567
     44 H7         -0.9569   -1.5786    0.3133 H         1 <0>         0.0561
     45 H8         -1.3925   -0.1314    1.2535 H         1 <0>         0.0581
     46 H9         -0.3886    0.4976   -2.3226 H         1 <0>         0.1213
     47 H10         0.5892   -0.3096   -4.4334 H         1 <0>         0.1219
     48 H11         3.6361   -2.3394   -2.2456 H         1 <0>         0.1142
     49 H12         2.6631   -1.5252   -0.1352 H         1 <0>         0.1201
     50 H13         0.6689   -3.4868   -5.1980 H         1 <0>         0.1463
     51 H14         0.6196   -5.9451   -5.2205 H         1 <0>         0.1439
     52 H15         4.8045   -6.0359   -4.3677 H         1 <0>         0.1433
     53 H16         7.2803   -2.2086   -4.6121 H         1 <0>         0.4119
     54 H17         6.6300   -0.7180   -5.0337 H         1 <0>         0.4262
     55 H18         2.0581  -10.0877   -4.0281 H         1 <0>         0.1118
     56 H19         3.8222   -9.9626   -4.2290 H         1 <0>         0.1118
     57 H20         3.0800  -11.9157   -4.1623 H         1 <0>         0.1293
     58 H21         3.2940  -14.3416   -3.8046 H         1 <0>         0.1261
     59 H22         3.7044  -13.6943    0.3912 H         1 <0>         0.1358
     60 H23         3.5026  -11.2663    0.0406 H         1 <0>         0.1329
     61 H24         5.7563  -15.6745   -1.8832 H         1 <0>         0.0567
     62 H25         4.9497  -17.2485   -2.0836 H         1 <0>         0.0592
     63 H26         4.7252  -15.9717   -3.3033 H         1 <0>         0.0563
     64 H27         2.9612  -15.5612    0.5729 H         1 <0>         0.0594
     65 H28         3.9195  -17.0088    0.1800 H         1 <0>         0.0596
     66 H29         4.7262  -15.4348    0.3804 H         1 <0>         0.0593
     67 H30         2.2477  -16.1491   -3.0331 H         1 <0>         0.0563
     68 H31         2.4722  -17.4259   -1.8134 H         1 <0>         0.0592
     69 H32         1.5138  -15.9783   -1.4205 H         1 <0>         0.0568
@<TRIPOS>BOND
     1    1    2 1
     2    1   39 1
     3    1   40 1
     4    1   41 1
     5    2    3 1
     6    2    4 1
     7    2   42 1
     8    3   43 1
     9    3   44 1
    10    3   45 1
    11    4    9 ar
    12    4    5 ar
    13    5    6 ar
    14    5   46 1
    15    6    7 ar
    16    6   47 1
    17    7    8 ar
    18    7   10 1
    19    8    9 ar
    20    8   48 1
    21    9   49 1
    22   10   11 1
    23   10   20 1
    24   10   12 1
    25   12   17 ar
    26   12   13 ar
    27   13   14 ar
    28   13   50 1
    29   14   15 ar
    30   14   51 1
    31   15   16 ar
    32   15   24 1
    33   16   17 ar
    34   16   52 1
    35   17   18 1
    36   18   19 1
    37   19   20 2
    38   19   23 1
    39   20   21 1
    40   21   22 3
    41   23   53 1
    42   23   54 1
    43   24   25 1
    44   25   26 2
    45   25   27 1
    46   27   28 1
    47   27   55 1
    48   27   56 1
    49   28   29 1
    50   29   34 ar
    51   29   30 ar
    52   30   31 ar
    53   30   57 1
    54   31   32 ar
    55   31   58 1
    56   32   33 ar
    57   32   35 1
    58   33   34 ar
    59   33   59 1
    60   34   60 1
    61   35   36 1
    62   35   37 1
    63   35   38 1
    64   36   61 1
    65   36   62 1
    66   36   63 1
    67   37   64 1
    68   37   65 1
    69   37   66 1
    70   38   67 1
    71   38   68 1
    72   38   69 1
@<TRIPOS>MOLECULE
ZINC39328002
   67    70     0     0     0
SMALL
USER_CHARGES

@<TRIPOS>ATOM
      1 C1          1.2178   -0.8653    2.0434 C.3       1 <0>        -0.1514
      2 C2          0.3653   -1.0723    0.7899 C.3       1 <0>         0.0573
      3 O1          1.1829   -1.5883   -0.2624 O.3       1 <0>        -0.3399
      4 C3          0.5797   -1.8285   -1.4451 C.2       1 <0>         0.5238
      5 O2         -0.6089   -1.6053   -1.5782 O.2       1 <0>        -0.4775
      6 C4          1.3302   -2.3405   -2.5318 C.2       1 <0>        -0.1738
      7 C5          1.6089   -3.6497   -2.5799 C.2       1 <0>         0.1433
      8 O3          2.3153   -4.1888   -3.5859 O.3       1 <0>        -0.2273
      9 C6          2.4444   -3.5215   -4.7475 C.2       1 <0>         0.4331
     10 C7          2.2124   -2.1887   -4.8274 C.2       1 <0>        -0.2626
     11 C8          1.7947   -1.4054   -3.6145 C.3       1 <0>         0.0967
     12 H1          0.9831   -0.7281   -3.8804 H         1 <0>         0.1038
     13 C9          2.9686   -0.6041   -3.1138 C.ar      1 <0>        -0.0879
     14 C10         4.1250   -1.2478   -2.7146 C.ar      1 <0>        -0.0912
     15 C11         5.2019   -0.5128   -2.2553 C.ar      1 <0>        -0.1148
     16 C12         5.1226    0.8660   -2.1956 C.ar      1 <0>        -0.0708
     17 C13         3.9665    1.5098   -2.5957 C.ar      1 <0>        -0.1117
     18 C14         2.8912    0.7750   -3.0591 C.ar      1 <0>        -0.1047
     19 C15         6.2962    1.6673   -1.6940 C.3       1 <0>        -0.0581
     20 C16         6.7671    2.6237   -2.7914 C.3       1 <0>        -0.1453
     21 C17         5.8754    2.4717   -0.4624 C.3       1 <0>        -0.1441
     22 C18         2.3622   -1.5187   -6.0841 C.1       1 <0>         0.2730
     23 N1          2.4810   -0.9872   -7.0811 N.1       1 <0>        -0.4340
     24 N2          2.8198   -4.2062   -5.8765 N.pl3     1 <0>        -0.8245
     25 C19         1.1153   -4.5436   -1.4717 C.3       1 <0>        -0.0665
     26 S1         -0.3039   -5.5083   -2.0596 S.3       1 <0>        -0.0213
     27 C20        -0.7584   -6.4892   -0.6683 C.ar      1 <0>         0.1634
     28 C21        -1.8406   -7.3830   -0.7632 C.ar      1 <0>        -0.0596
     29 C22        -2.1767   -8.1416    0.3603 C.ar      1 <0>        -0.0086
     30 C23        -1.4308   -7.9874    1.5228 C.ar      1 <0>        -0.1300
     31 C24        -0.3791   -7.0969    1.5410 C.ar      1 <0>         0.1839
     32 N3         -0.0791   -6.3875    0.4595 N.ar      1 <0>        -0.4924
     33 C25         0.4823   -6.8937    2.7620 C.3       1 <0>        -0.0737
     34 C26        -0.2207   -7.4226    4.0099 C.3       1 <0>        -0.1217
     35 C27        -0.6808   -8.8591    3.7352 C.3       1 <0>        -0.1237
     36 C28        -1.8212   -8.8127    2.7200 C.3       1 <0>        -0.0776
     37 C29        -2.5801   -7.5118   -1.9827 C.1       1 <0>         0.2473
     38 N4         -3.1668   -7.6139   -2.9501 N.1       1 <0>        -0.3851
     39 H2          1.6480   -1.8182    2.3516 H         1 <0>         0.0674
     40 H3          2.0185   -0.1586    1.8256 H         1 <0>         0.0684
     41 H4          0.5941   -0.4717    2.8460 H         1 <0>         0.0805
     42 H5         -0.4355   -1.7790    1.0077 H         1 <0>         0.0686
     43 H6         -0.0650   -0.1194    0.4817 H         1 <0>         0.0706
     44 H7          4.1869   -2.3250   -2.7611 H         1 <0>         0.1153
     45 H8          6.1050   -1.0157   -1.9427 H         1 <0>         0.1212
     46 H9          3.9045    2.5870   -2.5488 H         1 <0>         0.1214
     47 H10         1.9894    1.2782   -3.3751 H         1 <0>         0.1202
     48 H11         7.1093    0.9923   -1.4268 H         1 <0>         0.0772
     49 H12         5.9540    3.2987   -3.0587 H         1 <0>         0.0567
     50 H13         7.6160    3.2033   -2.4286 H         1 <0>         0.0583
     51 H14         7.0669    2.0506   -3.6688 H         1 <0>         0.0556
     52 H15         5.5399    1.7903    0.3194 H         1 <0>         0.0563
     53 H16         6.7243    3.0513   -0.0996 H         1 <0>         0.0579
     54 H17         5.0624    3.1467   -0.7297 H         1 <0>         0.0565
     55 H18         2.9888   -5.1603   -5.8315 H         1 <0>         0.4140
     56 H19         2.9160   -3.7359   -6.7194 H         1 <0>         0.4280
     57 H20         1.9139   -5.2204   -1.1679 H         1 <0>         0.1334
     58 H21         0.8126   -3.9337   -0.6205 H         1 <0>         0.1284
     59 H22        -3.0030   -8.8363    0.3264 H         1 <0>         0.1525
     60 H23         1.4253   -7.4240    2.6287 H         1 <0>         0.0925
     61 H24         0.6837   -5.8297    2.8867 H         1 <0>         0.0910
     62 H25         0.4716   -7.4143    4.8518 H         1 <0>         0.0787
     63 H26        -1.0849   -6.7980    4.2361 H         1 <0>         0.0704
     64 H27         0.1483   -9.4391    3.3300 H         1 <0>         0.0696
     65 H28        -1.0314   -9.3158    4.6608 H         1 <0>         0.0759
     66 H29        -2.7016   -8.3727    3.1883 H         1 <0>         0.0848
     67 H30        -2.0558   -9.8268    2.3965 H         1 <0>         0.0826
@<TRIPOS>BOND
     1    1    2 1
     2    1   39 1
     3    1   40 1
     4    1   41 1
     5    2    3 1
     6    2   42 1
     7    2   43 1
     8    3    4 1
     9    4    5 2
    10    4    6 1
    11    6   11 1
    12    6    7 2
    13    7    8 1
    14    7   25 1
    15    8    9 1
    16    9   10 2
    17    9   24 1
    18   10   11 1
    19   10   22 1
    20   11   12 1
    21   11   13 1
    22   13   18 ar
    23   13   14 ar
    24   14   15 ar
    25   14   44 1
    26   15   16 ar
    27   15   45 1
    28   16   17 ar
    29   16   19 1
    30   17   18 ar
    31   17   46 1
    32   18   47 1
    33   19   20 1
    34   19   21 1
    35   19   48 1
    36   20   49 1
    37   20   50 1
    38   20   51 1
    39   21   52 1
    40   21   53 1
    41   21   54 1
    42   22   23 3
    43   24   55 1
    44   24   56 1
    45   25   26 1
    46   25   57 1
    47   25   58 1
    48   26   27 1
    49   27   32 ar
    50   27   28 ar
    51   28   29 ar
    52   28   37 1
    53   29   30 ar
    54   29   59 1
    55   30   36 1
    56   30   31 ar
    57   31   32 ar
    58   31   33 1
    59   33   34 1
    60   33   60 1
    61   33   61 1
    62   34   35 1
    63   34   62 1
    64   34   63 1
    65   35   36 1
    66   35   64 1
    67   35   65 1
    68   36   66 1
    69   36   67 1
    70   37   38 3
@<TRIPOS>MOLECULE
ZINC54615219
   71    74     0     0     0
SMALL
USER_CHARGES

@<TRIPOS>ATOM
      1 C1         -1.6554    2.2303   -6.5800 C.3       1 <0>        -0.1539
      2 C2         -1.4711    0.9774   -5.7216 C.3       1 <0>        -0.1168
      3 C3         -0.5656   -0.0144   -6.4546 C.3       1 <0>        -0.1066
      4 C4         -0.3813   -1.2674   -5.5961 C.3       1 <0>        -0.1051
      5 S1          0.6923   -2.4433   -6.4652 S.3       1 <0>         0.0167
      6 C5          0.8053   -3.8128   -5.3624 C.2       1 <0>         0.2174
      7 N1          0.2020   -3.9027   -4.1680 N.2       1 <0>        -0.5459
      8 C6          0.4985   -5.0472   -3.6148 C.2       1 <0>         0.5048
      9 N2          1.3089   -5.7276   -4.4624 N.pl3     1 <0>        -0.3790
     10 N3          1.4906   -4.9147   -5.5803 N.2       1 <0>        -0.2629
     11 C7          1.8370   -7.0599   -4.1808 C.3       1 <0>         0.2868
     12 H1          2.9078   -7.0767   -4.3837 H         1 <0>         0.1117
     13 C8          1.5948   -7.3996   -2.7344 C.2       1 <0>        -0.2901
     14 C9          0.7831   -6.6858   -1.9407 C.2       1 <0>         0.2148
     15 N4          0.1139   -5.5734   -2.3892 N.pl3     1 <0>        -0.6106
     16 C10         0.5990   -7.1186   -0.5090 C.3       1 <0>        -0.1362
     17 C11         2.2541   -8.5252   -2.1868 C.2       1 <0>         0.5938
     18 O1          3.4128   -8.4349   -1.8229 O.2       1 <0>        -0.5052
     19 N5          1.5999   -9.6975   -2.0677 N.am      1 <0>        -0.6593
     20 C12         2.2263  -10.7891   -1.4580 C.ar      1 <0>         0.1461
     21 C13         3.6094  -10.9114   -1.5015 C.ar      1 <0>        -0.1294
     22 C14         4.2248  -11.9905   -0.8985 C.ar      1 <0>        -0.1015
     23 C15         3.4658  -12.9489   -0.2517 C.ar      1 <0>        -0.1321
     24 C16         2.0890  -12.8300   -0.2066 C.ar      1 <0>        -0.0681
     25 C17         1.4676  -11.7501   -0.8028 C.ar      1 <0>        -0.1157
     26 C18        -0.0326  -11.6181   -0.7477 C.3       1 <0>        -0.1164
     27 C19         1.2660  -13.8767    0.4993 C.3       1 <0>        -0.1163
     28 C20         1.1436   -8.0707   -5.0574 C.ar      1 <0>        -0.1480
     29 C21        -0.2282   -8.2260   -4.9797 C.ar      1 <0>        -0.0533
     30 C22        -0.8661   -9.1523   -5.7818 C.ar      1 <0>        -0.2104
     31 C23        -0.1293   -9.9268   -6.6661 C.ar      1 <0>         0.1492
     32 C24         1.2469   -9.7687   -6.7425 C.ar      1 <0>        -0.1491
     33 C25         1.8795   -8.8374   -5.9419 C.ar      1 <0>        -0.0481
     34 O2         -0.7545  -10.8390   -7.4560 O.3       1 <0>        -0.3072
     35 C26        -2.1537  -11.0332   -7.2404 C.3       1 <0>         0.0773
     36 C27        -2.9410   -9.9762   -8.0175 C.3       1 <0>        -0.1827
     37 C28        -2.5558  -12.4275   -7.7254 C.3       1 <0>        -0.1499
     38 H2         -0.6848    2.6913   -6.7631 H         1 <0>         0.0560
     39 H3         -2.1122    1.9554   -7.5308 H         1 <0>         0.0558
     40 H4         -2.3005    2.9369   -6.0578 H         1 <0>         0.0568
     41 H5         -1.0144    1.2522   -4.7708 H         1 <0>         0.0652
     42 H6         -2.4417    0.5164   -5.5385 H         1 <0>         0.0648
     43 H7         -1.0224   -0.2893   -7.4053 H         1 <0>         0.0745
     44 H8          0.4050    0.4466   -6.6376 H         1 <0>         0.0749
     45 H9          0.0755   -0.9925   -4.6454 H         1 <0>         0.0929
     46 H10        -1.3519   -1.7284   -5.4131 H         1 <0>         0.0925
     47 H11        -0.5996   -5.1711   -1.8696 H         1 <0>         0.4401
     48 H12         1.3266   -6.6077    0.1215 H         1 <0>         0.0997
     49 H13        -0.4087   -6.8653   -0.1796 H         1 <0>         0.0894
     50 H14         0.7458   -8.1960   -0.4334 H         1 <0>         0.0934
     51 H15         0.6945   -9.7841   -2.4049 H         1 <0>         0.4111
     52 H16         4.2026  -10.1636   -2.0067 H         1 <0>         0.1475
     53 H17         5.3000  -12.0864   -0.9323 H         1 <0>         0.1253
     54 H18         3.9496  -13.7921    0.2188 H         1 <0>         0.1223
     55 H19        -0.4734  -12.1201   -1.6090 H         1 <0>         0.0704
     56 H20        -0.4042  -12.0759    0.1691 H         1 <0>         0.0749
     57 H21        -0.3053  -10.5629   -0.7633 H         1 <0>         0.0598
     58 H22         1.1422  -13.5969    1.5455 H         1 <0>         0.0712
     59 H23         0.2875  -13.9504    0.0247 H         1 <0>         0.0680
     60 H24         1.7730  -14.8397    0.4382 H         1 <0>         0.0679
     61 H25        -0.8013   -7.6229   -4.2912 H         1 <0>         0.1142
     62 H26        -1.9375   -9.2737   -5.7203 H         1 <0>         0.1319
     63 H27         1.8227  -10.3705   -7.4300 H         1 <0>         0.1361
     64 H28         2.9502   -8.7109   -6.0041 H         1 <0>         0.1330
     65 H29        -2.3737  -10.9410   -6.1768 H         1 <0>         0.0730
     66 H30        -2.6545   -8.9829   -7.6719 H         1 <0>         0.0621
     67 H31        -2.7210  -10.0684   -9.0810 H         1 <0>         0.0697
     68 H32        -4.0083  -10.1243   -7.8530 H         1 <0>         0.0737
     69 H33        -1.9950  -13.1805   -7.1717 H         1 <0>         0.0660
     70 H34        -3.6231  -12.5756   -7.5609 H         1 <0>         0.0785
     71 H35        -2.3358  -12.5196   -8.7889 H         1 <0>         0.0687
@<TRIPOS>BOND
     1    1    2 1
     2    1   38 1
     3    1   39 1
     4    1   40 1
     5    2    3 1
     6    2   41 1
     7    2   42 1
     8    3    4 1
     9    3   43 1
    10    3   44 1
    11    4    5 1
    12    4   45 1
    13    4   46 1
    14    5    6 1
    15    6   10 2
    16    6    7 1
    17    7    8 2
    18    8   15 1
    19    8    9 1
    20    9   10 1
    21    9   11 1
    22   11   12 1
    23   11   13 1
    24   11   28 1
    25   13   14 2
    26   13   17 1
    27   14   15 1
    28   14   16 1
    29   15   47 1
    30   16   48 1
    31   16   49 1
    32   16   50 1
    33   17   18 2
    34   17   19 am
    35   19   20 1
    36   19   51 1
    37   20   25 ar
    38   20   21 ar
    39   21   22 ar
    40   21   52 1
    41   22   23 ar
    42   22   53 1
    43   23   24 ar
    44   23   54 1
    45   24   25 ar
    46   24   27 1
    47   25   26 1
    48   26   55 1
    49   26   56 1
    50   26   57 1
    51   27   58 1
    52   27   59 1
    53   27   60 1
    54   28   33 ar
    55   28   29 ar
    56   29   30 ar
    57   29   61 1
    58   30   31 ar
    59   30   62 1
    60   31   32 ar
    61   31   34 1
    62   32   33 ar
    63   32   63 1
    64   33   64 1
    65   34   35 1
    66   35   36 1
    67   35   37 1
    68   35   65 1
    69   36   66 1
    70   36   67 1
    71   36   68 1
    72   37   69 1
    73   37   70 1
    74   37   71 1
@<TRIPOS>MOLECULE
ZINC08985926
   74    76     0     0     0
SMALL
USER_CHARGES
(4E,5S)-4-[(3-chloro-4-ethoxy-phenyl)-hydroxy-methylene]-1-(3-diethylaminopropyl)-5-(4-isopropylphenyl)pyrrolidine-2,3-dione
@<TRIPOS>ATOM
      1 C1         -3.0864   -1.4197   -4.8670 C.3       1 <0>        -0.1862
      2 C2         -2.2937   -2.4820   -4.1027 C.3       1 <0>        -0.0143
      3 C3         -0.5646   -2.4829   -5.7977 C.3       1 <0>        -0.0120
      4 C4         -0.7429   -3.9537   -6.1796 C.3       1 <0>        -0.1887
      5 C5         -0.3890   -1.0022   -3.8900 C.3       1 <0>        -0.0069
      6 C6         -0.4841   -0.9544   -2.3637 C.3       1 <0>        -0.1720
      7 C7          0.0059    0.4064   -1.8646 C.3       1 <0>         0.1380
      8 N1         -0.0851    0.4523   -0.4031 N.am      1 <0>        -0.5973
      9 C8          0.9718    0.0490    0.5290 C.3       1 <0>         0.2463
     10 H1          1.2138   -1.0041    0.3859 H         1 <0>         0.0967
     11 C9          0.4292    0.2707    1.9219 C.2       1 <0>        -0.3410
     12 C10         1.0813    0.0263    3.1152 C.2       1 <0>         0.3197
     13 C11         0.4629    0.4300    4.3873 C.ar      1 <0>        -0.1771
     14 C12        -0.0023    1.7397    4.5577 C.ar      1 <0>         0.0105
     15 C13        -0.5850    2.1115    5.7477 C.ar      1 <0>        -0.2025
     16 C14        -0.7024    1.1923    6.7845 C.ar      1 <0>         0.1831
     17 C15        -0.2371   -0.1092    6.6226 C.ar      1 <0>        -0.0802
     18 C16         0.3428   -0.4924    5.4336 C.ar      1 <0>        -0.0378
     19 Cl1        -0.3871   -1.2512    7.9215 Cl        1 <0>        -0.0388
     20 O1         -1.2723    1.5657    7.9582 O.3       1 <0>        -0.2952
     21 C17        -1.7285    2.9163    8.0570 C.3       1 <0>         0.0494
     22 C18        -2.3365    3.1492    9.4416 C.3       1 <0>        -0.1544
     23 O2          2.2862   -0.5831    3.1136 O.3       1 <0>        -0.4289
     24 C19        -0.8710    0.7735    1.7579 C.2       1 <0>         0.3852
     25 O3         -1.6374    1.0773    2.6543 O.2       1 <0>        -0.4028
     26 C20        -1.1508    0.8712    0.2998 C.2       1 <0>         0.4841
     27 O4         -2.1900    1.2710   -0.1839 O.2       1 <0>        -0.4865
     28 C21         2.2005    0.8944    0.3131 C.ar      1 <0>        -0.1102
     29 C22         2.0720    2.2437    0.0411 C.ar      1 <0>        -0.0983
     30 C23         3.1992    3.0202   -0.1521 C.ar      1 <0>        -0.1136
     31 C24         4.4545    2.4453   -0.0838 C.ar      1 <0>        -0.0618
     32 C25         4.5828    1.0950    0.1830 C.ar      1 <0>        -0.1172
     33 C26         3.4558    0.3196    0.3814 C.ar      1 <0>        -0.0897
     34 C27         5.6832    3.2906   -0.3006 C.3       1 <0>        -0.0616
     35 C28         5.6356    3.9104   -1.6986 C.3       1 <0>        -0.1446
     36 C29         5.7288    4.4028    0.7491 C.3       1 <0>        -0.1464
     37 H2         -2.7652   -0.4279   -4.5490 H         1 <0>         0.0809
     38 H3         -2.9089   -1.5335   -5.9365 H         1 <0>         0.0804
     39 H4         -4.1497   -1.5410   -4.6602 H         1 <0>         0.1061
     40 H5         -2.6067   -3.4737   -4.4291 H         1 <0>         0.1295
     41 H6         -2.4802   -2.3755   -3.0341 H         1 <0>         0.1285
     42 H7         -1.2463   -1.8694   -6.3868 H         1 <0>         0.1329
     43 H8          0.4628   -2.1779   -5.9964 H         1 <0>         0.1290
     44 H9         -0.0451   -4.5649   -5.6072 H         1 <0>         0.0801
     45 H10        -1.7639   -4.2651   -5.9593 H         1 <0>         0.0793
     46 H11        -0.5466   -4.0790   -7.2444 H         1 <0>         0.1060
     47 H12        -1.0085   -0.2139   -4.3175 H         1 <0>         0.1359
     48 H13         0.6473   -0.8553   -4.1943 H         1 <0>         0.1326
     49 H14         0.1354   -1.7427   -1.9362 H         1 <0>         0.0922
     50 H15        -1.5204   -1.1013   -2.0594 H         1 <0>         0.0931
     51 H16        -0.6136    1.1948   -2.2921 H         1 <0>         0.0964
     52 H17         1.0422    0.5534   -2.1689 H         1 <0>         0.0972
     53 H18         0.0925    2.4560    3.7550 H         1 <0>         0.1338
     54 H19        -0.9477    3.1203    5.8782 H         1 <0>         0.1471
     55 H20         0.7038   -1.5025    5.3085 H         1 <0>         0.1478
     56 H21        -0.8885    3.5952    7.9102 H         1 <0>         0.0692
     57 H22        -2.4834    3.1017    7.2929 H         1 <0>         0.0698
     58 H23        -3.1766    2.4703    9.5884 H         1 <0>         0.0698
     59 H24        -1.5817    2.9638   10.2058 H         1 <0>         0.0699
     60 H25        -2.6845    4.1794    9.5170 H         1 <0>         0.0841
     61 H26         2.6117   -0.6804    4.0541 H         1 <0>         0.4178
     62 H27         1.0911    2.6919   -0.0167 H         1 <0>         0.1139
     63 H28         3.0990    4.0750   -0.3609 H         1 <0>         0.1223
     64 H29         5.5635    0.6459    0.2361 H         1 <0>         0.1238
     65 H30         3.5560   -0.7354    0.5895 H         1 <0>         0.1240
     66 H31         6.5732    2.6681   -0.2092 H         1 <0>         0.0794
     67 H32         4.7456    4.5329   -1.7900 H         1 <0>         0.0564
     68 H33         6.5243    4.5217   -1.8554 H         1 <0>         0.0617
     69 H34         5.6032    3.1180   -2.4464 H         1 <0>         0.0544
     70 H35         4.8387    5.0254    0.6577 H         1 <0>         0.0567
     71 H36         5.7627    3.9613    1.7451 H         1 <0>         0.0565
     72 H37         6.6174    5.0142    0.5923 H         1 <0>         0.0619
     73 N2         -0.8453   -2.3291   -4.3547 N.4       1 <0>        -0.3948
     74 H38        -0.3381   -3.0564   -3.8369 H         1 <0>         0.4277
@<TRIPOS>BOND
     1    1    2 1
     2    1   37 1
     3    1   38 1
     4    1   39 1
     5    2   40 1
     6    2   41 1
     7    2   73 1
     8    3    4 1
     9    3   42 1
    10    3   43 1
    11    3   73 1
    12    4   44 1
    13    4   45 1
    14    4   46 1
    15    5    6 1
    16    5   47 1
    17    5   48 1
    18    5   73 1
    19    6    7 1
    20    6   49 1
    21    6   50 1
    22    7    8 1
    23    7   51 1
    24    7   52 1
    25    8   26 am
    26    8    9 1
    27    9   10 1
    28    9   11 1
    29    9   28 1
    30   11   12 2
    31   11   24 1
    32   12   13 1
    33   12   23 1
    34   13   18 ar
    35   13   14 ar
    36   14   15 ar
    37   14   53 1
    38   15   16 ar
    39   15   54 1
    40   16   17 ar
    41   16   20 1
    42   17   18 ar
    43   17   19 1
    44   18   55 1
    45   20   21 1
    46   21   22 1
    47   21   56 1
    48   21   57 1
    49   22   58 1
    50   22   59 1
    51   22   60 1
    52   23   61 1
    53   24   25 2
    54   24   26 1
    55   26   27 2
    56   28   33 ar
    57   28   29 ar
    58   29   30 ar
    59   29   62 1
    60   30   31 ar
    61   30   63 1
    62   31   32 ar
    63   31   34 1
    64   32   33 ar
    65   32   64 1
    66   33   65 1
    67   34   35 1
    68   34   36 1
    69   34   66 1
    70   35   67 1
    71   35   68 1
    72   35   69 1
    73   36   70 1
    74   36   71 1
    75   36   72 1
    76   73   74 1
@<TRIPOS>MOLECULE
ZINC35191036
   77    80     0     0     0
SMALL
USER_CHARGES

@<TRIPOS>ATOM
      1 C1          1.4451   -0.8558   -4.9455 C.3       1 <0>        -0.1632
      2 C2          0.9415    0.1567   -3.9149 C.3       1 <0>        -0.0737
      3 C3          1.5477    1.5300   -4.2108 C.3       1 <0>        -0.1823
      4 C4         -0.5840    0.2456   -3.9906 C.3       1 <0>        -0.1447
      5 C5          1.3572   -0.2930   -2.5128 C.3       1 <0>        -0.1140
      6 C6          2.7740    0.2033   -2.2172 C.3       1 <0>         0.1600
      7 C7          2.7232    1.6764   -1.8069 C.3       1 <0>        -0.2114
      8 C8          3.3765   -0.6227   -1.0789 C.3       1 <0>        -0.2005
      9 N1          3.6023    0.0588   -3.4169 N.pl3     1 <0>        -0.6908
     10 C9          4.9342    0.4750   -3.3996 C.2       1 <0>         0.3331
     11 C10         5.8280    0.4146   -4.4480 C.2       1 <0>         0.0256
     12 N2          7.0033    0.9132   -4.0229 N.pl3     1 <0>        -0.4726
     13 C11         6.8884    1.2833   -2.7579 C.cat     1 <0>         0.3120
     14 N3          5.6020    1.0267   -2.3415 N.pl3     1 <0>        -0.3541
     15 C12         5.2162    1.3254   -1.0623 C.2       1 <0>         0.0463
     16 C13         6.0874    1.8772   -0.1941 C.2       1 <0>        -0.1244
     17 C14         7.4076    2.1543   -0.5915 C.2       1 <0>        -0.0203
     18 C15         7.8094    1.8565   -1.8556 C.2       1 <0>        -0.1276
     19 C16         5.5441   -0.1085   -5.8050 C.ar      1 <0>         0.0020
     20 C17         4.8434   -1.3045   -5.9602 C.ar      1 <0>        -0.1267
     21 C18         4.5795   -1.7909   -7.2242 C.ar      1 <0>        -0.0654
     22 C19         5.0096   -1.0927   -8.3427 C.ar      1 <0>         0.0823
     23 C20         5.7100    0.1019   -8.1941 C.ar      1 <0>         0.1454
     24 C21         5.9718    0.5970   -6.9291 C.ar      1 <0>        -0.1806
     25 O1          6.1314    0.7842   -9.2922 O.3       1 <0>        -0.2974
     26 C22         6.8440    2.0019   -9.0653 C.3       1 <0>         0.0213
     27 O2          4.7473   -1.5756   -9.5866 O.3       1 <0>        -0.2777
     28 C23         5.6812   -2.3472  -10.1752 C.2       1 <0>         0.5204
     29 O3          6.6786   -2.6689   -9.5608 O.2       1 <0>        -0.4783
     30 C24         5.4925   -2.8024  -11.5680 C.ar      1 <0>        -0.0498
     31 C25         4.3501   -2.4292  -12.2777 C.ar      1 <0>        -0.1312
     32 C26         4.1777   -2.8579  -13.5833 C.ar      1 <0>         0.1600
     33 C27         5.1385   -3.6571  -14.1859 C.ar      1 <0>        -0.2613
     34 C28         6.2757   -4.0305  -13.4842 C.ar      1 <0>         0.1624
     35 C29         6.4590   -3.6021  -12.1800 C.ar      1 <0>        -0.1233
     36 O4          7.2136   -4.8135  -14.0794 O.3       1 <0>        -0.3073
     37 C30         6.9632   -5.2144  -15.4280 C.3       1 <0>         0.0232
     38 O5          3.0655   -2.4955  -14.2752 O.3       1 <0>        -0.3078
     39 C31         2.9520   -2.9730  -15.6173 C.3       1 <0>         0.0229
     40 H1          2.4156   -0.5360   -5.3248 H         1 <0>         0.0543
     41 H2          1.5432   -1.8344   -4.4755 H         1 <0>         0.0670
     42 H3          0.7353   -0.9184   -5.7703 H         1 <0>         0.0779
     43 H4          1.5571    1.6987   -5.2876 H         1 <0>         0.0578
     44 H5          0.9502    2.3027   -3.7271 H         1 <0>         0.0643
     45 H6          2.5677    1.5669   -3.8283 H         1 <0>         0.0832
     46 H7         -1.0159   -0.7328   -3.7799 H         1 <0>         0.0612
     47 H8         -0.9428    0.9669   -3.2564 H         1 <0>         0.0597
     48 H9         -0.8802    0.5659   -4.9895 H         1 <0>         0.0623
     49 H10         0.6664    0.1216   -1.7786 H         1 <0>         0.0956
     50 H11         1.3348   -1.3814   -2.4587 H         1 <0>         0.0834
     51 H12         2.5420    1.7488   -0.7345 H         1 <0>         0.0842
     52 H13         3.6730    2.1536   -2.0480 H         1 <0>         0.0600
     53 H14         1.9183    2.1761   -2.3460 H         1 <0>         0.1044
     54 H15         3.2788   -1.6837   -1.3087 H         1 <0>         0.0809
     55 H16         4.4310   -0.3709   -0.9661 H         1 <0>         0.0662
     56 H17         2.8490   -0.4018   -0.1510 H         1 <0>         0.0913
     57 H18         3.2249   -0.3262   -4.2233 H         1 <0>         0.4347
     58 H19         4.2048    1.1173   -0.7460 H         1 <0>         0.2238
     59 H20         5.7696    2.1081    0.8120 H         1 <0>         0.1802
     60 H21         8.1020    2.5968    0.1073 H         1 <0>         0.1726
     61 H22         8.8209    2.0676   -2.1699 H         1 <0>         0.1787
     62 H23         4.5077   -1.8503   -5.0908 H         1 <0>         0.1383
     63 H24         4.0372   -2.7173   -7.3427 H         1 <0>         0.1541
     64 H25         6.5107    1.5257   -6.8123 H         1 <0>         0.1421
     65 H26         7.7439    1.7938   -8.4866 H         1 <0>         0.0592
     66 H27         7.1216    2.4440  -10.0222 H         1 <0>         0.1129
     67 H28         6.2101    2.6966   -8.5143 H         1 <0>         0.0614
     68 H29         3.6015   -1.8075  -11.8093 H         1 <0>         0.1498
     69 H30         5.0006   -3.9898  -15.2040 H         1 <0>         0.1448
     70 H31         7.3464   -3.8899  -11.6359 H         1 <0>         0.1495
     71 H32         6.8760   -4.3304  -16.0596 H         1 <0>         0.0590
     72 H33         7.7873   -5.8339  -15.7818 H         1 <0>         0.1085
     73 H34         6.0353   -5.7848  -15.4711 H         1 <0>         0.0592
     74 H35         2.0208   -2.6119  -16.0539 H         1 <0>         0.1081
     75 H36         3.7943   -2.6083  -16.2051 H         1 <0>         0.0587
     76 H37         2.9543   -4.0630  -15.6165 H         1 <0>         0.0589
     77 H38         7.8080    0.9889   -4.5592 H         1 <0>         0.4612
@<TRIPOS>BOND
     1    1    2 1
     2    1   40 1
     3    1   41 1
     4    1   42 1
     5    2    3 1
     6    2    4 1
     7    2    5 1
     8    3   43 1
     9    3   44 1
    10    3   45 1
    11    4   46 1
    12    4   47 1
    13    4   48 1
    14    5    6 1
    15    5   49 1
    16    5   50 1
    17    6    7 1
    18    6    8 1
    19    6    9 1
    20    7   51 1
    21    7   52 1
    22    7   53 1
    23    8   54 1
    24    8   55 1
    25    8   56 1
    26    9   10 1
    27    9   57 1
    28   10   14 1
    29   10   11 2
    30   11   12 1
    31   11   19 1
    32   12   13 2
    33   12   77 1
    34   13   18 1
    35   13   14 1
    36   14   15 1
    37   15   16 2
    38   15   58 1
    39   16   17 1
    40   16   59 1
    41   17   18 2
    42   17   60 1
    43   18   61 1
    44   19   24 ar
    45   19   20 ar
    46   20   21 ar
    47   20   62 1
    48   21   22 ar
    49   21   63 1
    50   22   23 ar
    51   22   27 1
    52   23   24 ar
    53   23   25 1
    54   24   64 1
    55   25   26 1
    56   26   65 1
    57   26   66 1
    58   26   67 1
    59   27   28 1
    60   28   29 2
    61   28   30 1
    62   30   35 ar
    63   30   31 ar
    64   31   32 ar
    65   31   68 1
    66   32   33 ar
    67   32   38 1
    68   33   34 ar
    69   33   69 1
    70   34   35 ar
    71   34   36 1
    72   35   70 1
    73   36   37 1
    74   37   71 1
    75   37   72 1
    76   37   73 1
    77   38   39 1
    78   39   74 1
    79   39   75 1
    80   39   76 1
@<TRIPOS>MOLECULE
ZINC37867322
   68    70     0     0     0
SMALL
USER_CHARGES

@<TRIPOS>ATOM
      1 C1         -2.0749    2.2958    0.8519 C.3       1 <0>        -0.1398
      2 C2         -1.8226    0.7881    0.9164 C.3       1 <0>        -0.1447
      3 C3         -3.1029    0.0513    0.6181 C.2       1 <0>         0.5098
      4 O1         -4.1173    0.6711    0.3777 O.2       1 <0>        -0.5364
      5 N1         -3.1207   -1.2963    0.6186 N.am      1 <0>        -0.7373
      6 C4         -4.3654   -2.0126    0.3287 C.3       1 <0>         0.1175
      7 C5         -4.1131   -3.5202    0.3931 C.3       1 <0>        -0.1305
      8 C6         -5.4129   -4.2683    0.0903 C.3       1 <0>        -0.1131
      9 C7         -5.1606   -5.7759    0.1548 C.3       1 <0>        -0.1407
     10 C8         -6.4605   -6.5240   -0.1480 C.3       1 <0>         0.1593
     11 H1         -6.8568   -6.1902   -1.1070 H         1 <0>         0.1320
     12 C9         -6.1863   -8.0047   -0.2057 C.2       1 <0>         0.4952
     13 O2         -6.4460   -8.7101    0.7530 O.2       1 <0>        -0.4631
     14 N2         -5.6652   -8.5368   -1.2940 N.am      1 <0>        -0.6371
     15 C10        -5.5474   -9.8888   -1.4013 C.2       1 <0>         0.2712
     16 C11        -4.6972  -10.4415   -2.3753 C.2       1 <0>        -0.1566
     17 C12        -4.5707  -11.7893   -2.4921 C.2       1 <0>        -0.0016
     18 C13        -5.2927  -12.6389   -1.6355 C.2       1 <0>        -0.1970
     19 C14        -5.1747  -14.0408   -1.7404 C.2       1 <0>         0.1661
     20 C15        -5.9050  -14.8307   -0.8748 C.2       1 <0>        -0.2615
     21 C16        -6.7312  -14.2401    0.0704 C.2       1 <0>         0.4557
     22 O3         -7.4378  -15.0220    0.9089 O.3       1 <0>        -0.3674
     23 O4         -6.8404  -12.9107    0.1665 O.3       1 <0>        -0.2047
     24 C17        -6.1494  -12.0925   -0.6538 C.2       1 <0>         0.1908
     25 C18        -6.2668  -10.7188   -0.5400 C.2       1 <0>        -0.1820
     26 C19        -4.2718  -14.6625   -2.7745 C.3       1 <0>        -0.1557
     27 N3         -7.4391   -6.2493    0.9070 N.am      1 <0>        -0.7009
     28 C20        -7.1635   -6.5794    2.1843 C.2       1 <0>         0.6555
     29 O5         -6.1033   -7.1048    2.4608 O.2       1 <0>        -0.5457
     30 O6         -8.0628   -6.3270    3.1540 O.3       1 <0>        -0.3571
     31 C21        -7.7044   -6.7033    4.4851 C.3       1 <0>         0.1336
     32 C22        -8.8252   -6.3460    5.4271 C.ar      1 <0>        -0.1056
     33 C23        -8.8528   -5.1013    6.0279 C.ar      1 <0>        -0.0925
     34 C24        -9.8809   -4.7736    6.8920 C.ar      1 <0>        -0.1209
     35 C25       -10.8815   -5.6903    7.1549 C.ar      1 <0>        -0.1038
     36 C26       -10.8544   -6.9346    6.5534 C.ar      1 <0>        -0.1230
     37 C27        -9.8286   -7.2608    5.6860 C.ar      1 <0>        -0.0946
     38 H2         -1.1488    2.8287    1.0676 H         1 <0>         0.0638
     39 H3         -2.4243    2.5634   -0.1453 H         1 <0>         0.0621
     40 H4         -2.8313    2.5694    1.5875 H         1 <0>         0.0621
     41 H5         -1.0662    0.5145    0.1808 H         1 <0>         0.0936
     42 H6         -1.4732    0.5205    1.9136 H         1 <0>         0.0936
     43 H7         -2.3094   -1.7920    0.8109 H         1 <0>         0.4010
     44 H8         -5.1218   -1.7390    1.0642 H         1 <0>         0.0669
     45 H9         -4.7147   -1.7449   -0.6686 H         1 <0>         0.0680
     46 H10        -3.3566   -3.7938   -0.3425 H         1 <0>         0.0717
     47 H11        -3.7637   -3.7879    1.3903 H         1 <0>         0.0714
     48 H12        -6.1694   -3.9947    0.8259 H         1 <0>         0.0718
     49 H13        -5.7623   -4.0006   -0.9069 H         1 <0>         0.0725
     50 H14        -4.4042   -6.0495   -0.5808 H         1 <0>         0.0813
     51 H15        -4.8113   -6.0436    1.1520 H         1 <0>         0.1024
     52 H16        -5.3658   -7.9649   -2.0180 H         1 <0>         0.4310
     53 H17        -4.1419   -9.7910   -3.0347 H         1 <0>         0.1638
     54 H18        -3.9163  -12.2076   -3.2426 H         1 <0>         0.1685
     55 H19        -5.8334  -15.9067   -0.9338 H         1 <0>         0.1973
     56 H20        -6.9157  -10.2903    0.2095 H         1 <0>         0.1983
     57 H21        -3.2755  -14.7970   -2.3533 H         1 <0>         0.1241
     58 H22        -4.6739  -15.6307   -3.0729 H         1 <0>         0.1093
     59 H23        -4.2131  -14.0095   -3.6453 H         1 <0>         0.1042
     60 H24        -8.2854   -5.8299    0.6863 H         1 <0>         0.4184
     61 H25        -7.5263   -7.7779    4.5235 H         1 <0>         0.0767
     62 H26        -6.7986   -6.1740    4.7809 H         1 <0>         0.0782
     63 H27        -8.0710   -4.3851    5.8225 H         1 <0>         0.1248
     64 H28        -9.9021   -3.8014    7.3619 H         1 <0>         0.1284
     65 H29       -11.6843   -5.4345    7.8305 H         1 <0>         0.1274
     66 H30       -11.6360   -7.6510    6.7590 H         1 <0>         0.1268
     67 H31        -9.8094   -8.2316    5.2132 H         1 <0>         0.1218
     68 H32        -7.9873  -14.5312    1.5352 H         1 <0>         0.4454
@<TRIPOS>BOND
     1    1    2 1
     2    1   38 1
     3    1   39 1
     4    1   40 1
     5    2    3 1
     6    2   41 1
     7    2   42 1
     8    3    4 2
     9    3    5 am
    10    5    6 1
    11    5   43 1
    12    6    7 1
    13    6   44 1
    14    6   45 1
    15    7    8 1
    16    7   46 1
    17    7   47 1
    18    8    9 1
    19    8   48 1
    20    8   49 1
    21    9   10 1
    22    9   50 1
    23    9   51 1
    24   10   11 1
    25   10   12 1
    26   10   27 1
    27   12   13 2
    28   12   14 am
    29   14   15 2
    30   14   52 1
    31   15   25 1
    32   15   16 1
    33   16   17 2
    34   16   53 1
    35   17   18 1
    36   17   54 1
    37   18   24 1
    38   18   19 2
    39   19   20 1
    40   19   26 1
    41   20   21 2
    42   20   55 1
    43   21   22 1
    44   21   23 1
    45   22   68 1
    46   23   24 1
    47   24   25 2
    48   25   56 1
    49   26   57 1
    50   26   58 1
    51   26   59 1
    52   27   28 am
    53   27   60 1
    54   28   29 2
    55   28   30 1
    56   30   31 1
    57   31   32 1
    58   31   61 1
    59   31   62 1
    60   32   37 ar
    61   32   33 ar
    62   33   34 ar
    63   33   63 1
    64   34   35 ar
    65   34   64 1
    66   35   36 ar
    67   35   65 1
    68   36   37 ar
    69   36   66 1
    70   37   67 1
@<TRIPOS>MOLECULE
ZINC41513761
   70    73     0     0     0
SMALL
USER_CHARGES

@<TRIPOS>ATOM
      1 C1         -0.1419    1.3533    0.6761 C.3       1 <0>        -0.1546
      2 C2         -0.1482   -0.1714    0.5492 C.3       1 <0>         0.0502
      3 O1         -1.4957   -0.6349    0.4427 O.3       1 <0>        -0.3006
      4 C3         -1.6792   -1.9768    0.3221 C.ar      1 <0>         0.1253
      5 C4         -0.5887   -2.8289    0.3121 C.ar      1 <0>        -0.1474
      6 C5         -0.7664   -4.1999    0.1964 C.ar      1 <0>        -0.0930
      7 C6         -2.0187   -4.7314    0.0769 C.ar      1 <0>        -0.0829
      8 C7         -3.1380   -3.8870    0.0589 C.ar      1 <0>        -0.1294
      9 C8         -2.9656   -2.4996    0.2138 C.ar      1 <0>         0.1119
     10 O2         -4.0450   -1.6821    0.2733 O.3       1 <0>        -0.2502
     11 C9         -5.1662   -2.1024   -0.3561 C.2       1 <0>         0.5243
     12 O3         -5.8797   -1.3224   -0.9587 O.2       1 <0>        -0.4353
     13 C10        -5.4938   -3.5388   -0.2870 C.2       1 <0>        -0.2239
     14 C11        -4.4433   -4.4220   -0.0994 C.2       1 <0>         0.0515
     15 C12        -6.8828   -4.0159   -0.4231 C.2       1 <0>         0.0991
     16 C13        -7.4989   -4.7242    0.5956 C.2       1 <0>        -0.2288
     17 C14        -8.8214   -5.1621    0.4307 C.2       1 <0>         0.5159
     18 O4         -9.3558   -5.7846    1.3319 O.2       1 <0>        -0.4355
     19 O5         -9.5151   -4.9145   -0.6918 O.3       1 <0>        -0.2836
     20 C15        -8.9804   -4.2306   -1.7263 C.ar      1 <0>         0.1887
     21 C16        -7.6626   -3.7495   -1.6446 C.ar      1 <0>        -0.1441
     22 C17        -7.1088   -3.0370   -2.7099 C.ar      1 <0>         0.0153
     23 C18        -7.8534   -2.8037   -3.8312 C.ar      1 <0>        -0.1609
     24 C19        -9.1618   -3.2726   -3.9176 C.ar      1 <0>         0.1961
     25 C20        -9.7219   -3.9909   -2.8735 C.ar      1 <0>        -0.2087
     26 C21       -11.1389   -4.4936   -2.9764 C.3       1 <0>         0.0344
     27 N1        -12.0599   -3.4702   -2.4641 N.4       1 <0>        -0.3831
     28 C22       -12.0171   -2.2909   -3.3388 C.3       1 <0>        -0.0097
     29 C23       -12.8601   -1.1706   -2.7262 C.3       1 <0>        -0.1181
     30 C24       -12.2381   -0.7317   -1.3991 C.3       1 <0>        -0.1684
     31 C25       -12.9034    0.0190   -3.6874 C.3       1 <0>        -0.1487
     32 C26       -13.4257   -4.0103   -2.4367 C.3       1 <0>        -0.0147
     33 C27       -13.6498   -4.7642   -1.1244 C.3       1 <0>        -0.1161
     34 C28       -15.1176   -5.1837   -1.0214 C.3       1 <0>        -0.1493
     35 C29       -12.7604   -6.0087   -1.0928 C.3       1 <0>        -0.1807
     36 O6         -9.8906   -3.0331   -5.0378 O.3       1 <0>        -0.4907
     37 H1          0.8860    1.7069    0.7573 H         1 <0>         0.0849
     38 H2         -0.6089    1.7932   -0.2051 H         1 <0>         0.0687
     39 H3         -0.6982    1.6461    1.5665 H         1 <0>         0.0694
     40 H4          0.4081   -0.4641   -0.3413 H         1 <0>         0.0683
     41 H5          0.3188   -0.6112    1.4304 H         1 <0>         0.0690
     42 H6          0.4087   -2.4232    0.3948 H         1 <0>         0.1504
     43 H7          0.0937   -4.8530    0.2004 H         1 <0>         0.1455
     44 H8         -2.1467   -5.8007   -0.0040 H         1 <0>         0.1470
     45 H9         -4.6149   -5.4877   -0.0628 H         1 <0>         0.1641
     46 H10        -6.9651   -4.9379    1.5098 H         1 <0>         0.1764
     47 H11        -6.0946   -2.6710   -2.6475 H         1 <0>         0.1511
     48 H12        -7.4251   -2.2522   -4.6551 H         1 <0>         0.1561
     49 H13       -11.3745   -4.7051   -4.0194 H         1 <0>         0.1406
     50 H14       -11.2447   -5.4050   -2.3879 H         1 <0>         0.1553
     51 H15       -10.9859   -1.9536   -3.4439 H         1 <0>         0.1338
     52 H16       -12.4159   -2.5511   -4.3193 H         1 <0>         0.1340
     53 H17       -13.8731   -1.5328   -2.5505 H         1 <0>         0.0926
     54 H18       -11.2507   -0.3082   -1.5831 H         1 <0>         0.0730
     55 H19       -12.8740    0.0194   -0.9306 H         1 <0>         0.0839
     56 H20       -12.1463   -1.5936   -0.7382 H         1 <0>         0.0458
     57 H21       -13.3465   -0.2937   -4.6329 H         1 <0>         0.0675
     58 H22       -13.5040    0.8170   -3.2510 H         1 <0>         0.0761
     59 H23       -11.8904    0.3811   -3.8631 H         1 <0>         0.0676
     60 H24       -14.1416   -3.1919   -2.5123 H         1 <0>         0.1352
     61 H25       -13.5636   -4.6923   -3.2757 H         1 <0>         0.1326
     62 H26       -13.3975   -4.1160   -0.2852 H         1 <0>         0.0911
     63 H27       -15.3700   -5.8320   -1.8605 H         1 <0>         0.0679
     64 H28       -15.2773   -5.7208   -0.0865 H         1 <0>         0.0775
     65 H29       -15.7513   -4.2971   -1.0439 H         1 <0>         0.0665
     66 H30       -13.0894   -6.6703   -0.2914 H         1 <0>         0.0849
     67 H31       -12.8318   -6.5306   -2.0471 H         1 <0>         0.0692
     68 H32       -11.7263   -5.7119   -0.9175 H         1 <0>         0.0689
     69 H33        -9.8079   -3.7186   -5.7148 H         1 <0>         0.4124
     70 H34       -11.7837   -3.2065   -1.5301 H         1 <0>         0.4183
@<TRIPOS>BOND
     1    1    2 1
     2    1   37 1
     3    1   38 1
     4    1   39 1
     5    2    3 1
     6    2   40 1
     7    2   41 1
     8    3    4 1
     9    4    9 ar
    10    4    5 ar
    11    5    6 ar
    12    5   42 1
    13    6    7 ar
    14    6   43 1
    15    7    8 ar
    16    7   44 1
    17    8   14 1
    18    8    9 ar
    19    9   10 1
    20   10   11 1
    21   11   12 2
    22   11   13 1
    23   13   14 2
    24   13   15 1
    25   14   45 1
    26   15   21 1
    27   15   16 2
    28   16   17 1
    29   16   46 1
    30   17   18 2
    31   17   19 1
    32   19   20 1
    33   20   25 ar
    34   20   21 ar
    35   21   22 ar
    36   22   23 ar
    37   22   47 1
    38   23   24 ar
    39   23   48 1
    40   24   25 ar
    41   24   36 1
    42   25   26 1
    43   26   27 1
    44   26   49 1
    45   26   50 1
    46   27   28 1
    47   27   32 1
    48   27   70 1
    49   28   29 1
    50   28   51 1
    51   28   52 1
    52   29   30 1
    53   29   31 1
    54   29   53 1
    55   30   54 1
    56   30   55 1
    57   30   56 1
    58   31   57 1
    59   31   58 1
    60   31   59 1
    61   32   33 1
    62   32   60 1
    63   32   61 1
    64   33   34 1
    65   33   35 1
    66   33   62 1
    67   34   63 1
    68   34   64 1
    69   34   65 1
    70   35   66 1
    71   35   67 1
    72   35   68 1
    73   36   69 1
@<TRIPOS>MOLECULE
ZINC63426680
   70    74     0     0     0
SMALL
USER_CHARGES

@<TRIPOS>ATOM
      1 C1          1.1358    1.5016   -0.0946 C.3       1 <0>        -0.1250
      2 C2          1.1205   -0.0053   -0.1005 C.ar      1 <0>        -0.0356
      3 C3          0.8976   -0.6888   -1.2803 C.ar      1 <0>        -0.1951
      4 C4          0.8836   -2.0758   -1.2852 C.ar      1 <0>         0.1373
      5 C5          1.0936   -2.7740   -0.1048 C.ar      1 <0>        -0.1002
      6 C6          1.3161   -2.0871    1.0726 C.ar      1 <0>        -0.0639
      7 C7          1.3353   -0.7034    1.0744 C.ar      1 <0>        -0.0677
      8 Cl1         1.6222    0.1577    2.5543 Cl        1 <0>        -0.0598
      9 C8          1.0784   -4.2810   -0.1073 C.3       1 <0>        -0.0445
     10 C9          2.4321   -4.8054    0.3756 C.3       1 <0>        -0.1472
     11 C10        -0.0252   -4.7814    0.8268 C.3       1 <0>        -0.1463
     12 O1          0.6641   -2.7500   -2.4448 O.3       1 <0>        -0.3103
     13 C11         0.4552   -1.9663   -3.6214 C.3       1 <0>         0.1085
     14 C12         0.2300   -2.8788   -4.7994 C.ar      1 <0>        -0.1140
     15 C13         0.2433   -4.2493   -4.6248 C.ar      1 <0>        -0.0358
     16 C14         0.0373   -5.0869   -5.7051 C.ar      1 <0>        -0.1973
     17 C15        -0.1830   -4.5558   -6.9627 C.ar      1 <0>        -0.0898
     18 C16        -0.1977   -3.1864   -7.1424 C.ar      1 <0>        -0.2009
     19 C17         0.0035   -2.3434   -6.0588 C.ar      1 <0>         0.1578
     20 O2         -0.0161   -0.9956   -6.2320 O.3       1 <0>        -0.3095
     21 C18        -0.2550   -0.5152   -7.5564 C.3       1 <0>         0.0236
     22 C19         0.0534   -6.5814   -5.5120 C.3       1 <0>         0.1493
     23 H1          0.1379   -6.8137   -4.4504 H         1 <0>         0.1244
     24 C20        -1.2357   -7.1876   -6.0715 C.3       1 <0>         0.0938
     25 H2         -1.2868   -8.2522   -5.8431 H         1 <0>         0.1843
     26 C21        -1.1917   -6.9655   -7.5792 C.2       1 <0>         0.0633
     27 C22        -2.3184   -6.3465   -7.9003 C.ar      1 <0>        -0.1380
     28 C23        -2.8867   -5.9450   -9.1964 C.ar      1 <0>        -0.0804
     29 C24        -4.0851   -5.2996   -9.1647 C.ar      1 <0>         0.0952
     30 C25        -4.7868   -5.0063   -7.9863 C.ar      1 <0>        -0.0330
     31 C26        -4.3586   -5.3349   -6.7407 C.ar      1 <0>        -0.1522
     32 C27        -3.0748   -6.0429   -6.6454 C.ar      1 <0>         0.3232
     33 N1         -2.4346   -6.5029   -5.5897 N.pl3     1 <0>        -0.5634
     34 O3         -4.6346   -4.9156  -10.3471 O.3       1 <0>        -0.3048
     35 C28        -5.8925   -4.2400  -10.2889 C.3       1 <0>         0.0143
     36 C29         0.0186   -7.3408   -8.3995 C.3       1 <0>        -0.0869
     37 C30         1.2381   -6.7714   -7.6516 C.3       1 <0>         0.0340
     38 N2          1.1928   -7.1632   -6.2391 N.3       1 <0>        -0.6756
     39 H3          2.1494    1.8554   -0.2834 H         1 <0>         0.0808
     40 H4          0.4699    1.8748   -0.8727 H         1 <0>         0.0719
     41 H5          0.7993    1.8646    0.8765 H         1 <0>         0.0789
     42 H6          0.7341   -0.1436   -2.1981 H         1 <0>         0.1362
     43 H7          1.4795   -2.6303    1.9917 H         1 <0>         0.1412
     44 H8          0.8891   -4.6407   -1.1187 H         1 <0>         0.0809
     45 H9          2.6213   -4.4457    1.3869 H         1 <0>         0.0591
     46 H10         2.4211   -5.8954    0.3738 H         1 <0>         0.0604
     47 H11         3.2183   -4.4489   -0.2899 H         1 <0>         0.0562
     48 H12        -0.9896   -4.4077    0.4828 H         1 <0>         0.0540
     49 H13        -0.0362   -5.8713    0.8251 H         1 <0>         0.0598
     50 H14         0.1641   -4.4216    1.8382 H         1 <0>         0.0594
     51 H15        -0.4183   -1.3291   -3.4832 H         1 <0>         0.0805
     52 H16         1.3322   -1.3456   -3.8050 H         1 <0>         0.0822
     53 H17         0.4152   -4.6666   -3.6436 H         1 <0>         0.1451
     54 H18        -0.3433   -5.2122   -7.8052 H         1 <0>         0.1362
     55 H19        -0.3698   -2.7720   -8.1248 H         1 <0>         0.1384
     56 H20        -0.2448    0.5748   -7.5549 H         1 <0>         0.1106
     57 H21         0.5241   -0.8848   -8.2231 H         1 <0>         0.0620
     58 H22        -1.2265   -0.8690   -7.9016 H         1 <0>         0.0586
     59 H23        -2.3785   -6.1515  -10.1267 H         1 <0>         0.1716
     60 H24        -5.7285   -4.4851   -8.0756 H         1 <0>         0.1634
     61 H25        -4.9346   -5.0875   -5.8613 H         1 <0>         0.1751
     62 H26        -6.6319   -4.8886   -9.8192 H         1 <0>         0.0641
     63 H27        -5.7873   -3.3260   -9.7044 H         1 <0>         0.0629
     64 H28        -6.2177   -3.9900  -11.2988 H         1 <0>         0.1164
     65 H29         0.0983   -8.4253   -8.4750 H         1 <0>         0.1323
     66 H30        -0.0509   -6.8990   -9.3936 H         1 <0>         0.1156
     67 H31         2.1518   -7.1567   -8.1041 H         1 <0>         0.1106
     68 H32         1.2316   -5.6839   -7.7251 H         1 <0>         0.0687
     69 H33         2.0638   -6.9510   -5.7759 H         1 <0>         0.3777
     70 H34        -2.6992   -6.4065   -4.6615 H         1 <0>         0.4571
@<TRIPOS>BOND
     1    1    2 1
     2    1   39 1
     3    1   40 1
     4    1   41 1
     5    2    7 ar
     6    2    3 ar
     7    3    4 ar
     8    3   42 1
     9    4    5 ar
    10    4   12 1
    11    5    6 ar
    12    5    9 1
    13    6    7 ar
    14    6   43 1
    15    7    8 1
    16    9   10 1
    17    9   11 1
    18    9   44 1
    19   10   45 1
    20   10   46 1
    21   10   47 1
    22   11   48 1
    23   11   49 1
    24   11   50 1
    25   12   13 1
    26   13   14 1
    27   13   51 1
    28   13   52 1
    29   14   19 ar
    30   14   15 ar
    31   15   16 ar
    32   15   53 1
    33   16   17 ar
    34   16   22 1
    35   17   18 ar
    36   17   54 1
    37   18   19 ar
    38   18   55 1
    39   19   20 1
    40   20   21 1
    41   21   56 1
    42   21   57 1
    43   21   58 1
    44   22   23 1
    45   22   38 1
    46   22   24 1
    47   24   25 1
    48   24   33 1
    49   24   26 1
    50   26   27 2
    51   26   36 1
    52   27   32 ar
    53   27   28 ar
    54   28   29 ar
    55   28   59 1
    56   29   30 ar
    57   29   34 1
    58   30   31 ar
    59   30   60 1
    60   31   32 ar
    61   31   61 1
    62   32   33 2
    63   33   70 1
    64   34   35 1
    65   35   62 1
    66   35   63 1
    67   35   64 1
    68   36   37 1
    69   36   65 1
    70   36   66 1
    71   37   38 1
    72   37   67 1
    73   37   68 1
    74   38   69 1
@<TRIPOS>MOLECULE
ZINC09542133
   58    61     0     0     0
SMALL
USER_CHARGES
methyl 4-[4-(5-bromo-2-hydroxy-phenyl)-6-(4-ethylphenyl)-2,3,4,5-tetrahydropyrimidin-2-yl]benzoate
@<TRIPOS>ATOM
      1 C1          4.1469   -2.1012   -7.1677 C.3       1 <0>        -0.1488
      2 C2          4.8559   -2.2747   -5.8230 C.3       1 <0>        -0.0982
      3 C3          4.0380   -1.6255   -4.7365 C.ar      1 <0>        -0.0344
      4 C4          3.0782   -2.3613   -4.0642 C.ar      1 <0>        -0.1262
      5 C5          2.3260   -1.7733   -3.0685 C.ar      1 <0>        -0.0513
      6 C6          2.5349   -0.4324   -2.7397 C.ar      1 <0>        -0.1089
      7 C7          3.5014    0.3056   -3.4259 C.ar      1 <0>        -0.0777
      8 C8          4.2505   -0.2965   -4.4154 C.ar      1 <0>        -0.1234
      9 C9          1.7334    0.2037   -1.6757 C.2       1 <0>         0.2768
     10 N1          0.8529   -0.5015   -1.0718 N.2       1 <0>        -0.5207
     11 C10         0.0021   -0.0041    0.0020 C.3       1 <0>         0.2574
     12 H1         -1.0123   -0.3762   -0.1419 H         1 <0>         0.1790
     13 C11         1.3575    1.9909   -0.0002 C.3       1 <0>         0.0882
     14 H2          1.9339    1.5308    0.8024 H         1 <0>         0.1615
     15 C12         1.9905    1.6493   -1.3527 C.3       1 <0>        -0.1393
     16 C13         1.3302    3.4863    0.1852 C.ar      1 <0>        -0.1605
     17 C14         0.1749    4.1950   -0.0828 C.ar      1 <0>        -0.0882
     18 C15         0.1474    5.5668    0.0932 C.ar      1 <0>        -0.0890
     19 C16         1.2800    6.2335    0.5259 C.ar      1 <0>        -0.0471
     20 C17         2.4387    5.5294    0.7894 C.ar      1 <0>        -0.1195
     21 C18         2.4665    4.1526    0.6195 C.ar      1 <0>         0.1607
     22 O1          3.6055    3.4579    0.8787 O.3       1 <0>        -0.4885
     23 Br1        -1.4375    6.5333   -0.2669 Br        1 <0>        -0.0122
     24 C19         0.5292   -0.5007    1.3236 C.ar      1 <0>        -0.1170
     25 C20         0.3285    0.2475    2.4701 C.ar      1 <0>        -0.1366
     26 C21         0.8033   -0.2039    3.6840 C.ar      1 <0>        -0.0468
     27 C22         1.4979   -1.4133    3.7522 C.ar      1 <0>        -0.0908
     28 C23         1.7018   -2.1605    2.5904 C.ar      1 <0>        -0.0442
     29 C24         1.2166   -1.7000    1.3840 C.ar      1 <0>        -0.0764
     30 C25         2.0150   -1.8999    5.0476 C.2       1 <0>         0.4993
     31 O2          2.6192   -2.9522    5.1038 O.2       1 <0>        -0.4869
     32 O3          1.8165   -1.1766    6.1666 O.3       1 <0>        -0.3539
     33 C26         2.3524   -1.7158    7.4038 C.3       1 <0>         0.0353
     34 H3          3.1640   -2.5703   -7.1234 H         1 <0>         0.0577
     35 H4          4.0332   -1.0390   -7.3841 H         1 <0>         0.0572
     36 H5          4.7385   -2.5708   -7.9536 H         1 <0>         0.0658
     37 H6          5.8388   -1.8056   -5.8673 H         1 <0>         0.0795
     38 H7          4.9696   -3.3369   -5.6066 H         1 <0>         0.0798
     39 H8          2.9179   -3.3984   -4.3193 H         1 <0>         0.1335
     40 H9          1.5774   -2.3488   -2.5443 H         1 <0>         0.1386
     41 H10         3.6650    1.3444   -3.1796 H         1 <0>         0.1278
     42 H11         5.0015    0.2719   -4.9439 H         1 <0>         0.1338
     43 H12         2.9764    1.8110   -1.3096 H         1 <0>         0.1232
     44 H13         1.5528    2.2782   -2.1279 H         1 <0>         0.1288
     45 H14        -0.7087    3.6772   -0.4256 H         1 <0>         0.1301
     46 H15         1.2579    7.3051    0.6580 H         1 <0>         0.1531
     47 H16         3.3223    6.0501    1.1278 H         1 <0>         0.1559
     48 H17         4.1920    3.3652    0.1154 H         1 <0>         0.4048
     49 H18        -0.2051    1.1849    2.4152 H         1 <0>         0.1256
     50 H19         0.6422    0.3789    4.5789 H         1 <0>         0.1534
     51 H20         2.2378   -3.0969    2.6363 H         1 <0>         0.1536
     52 H21         1.3739   -2.2768    0.4846 H         1 <0>         0.1535
     53 H22         1.9031   -2.6892    7.6006 H         1 <0>         0.0695
     54 H23         3.4331   -1.8260    7.3141 H         1 <0>         0.0691
     55 H24         2.1233   -1.0370    8.2253 H         1 <0>         0.1100
     56 N2         -0.0220    1.4664    0.0102 N.4       1 <0>        -0.5472
     57 H25        -0.5047    1.7944    0.8549 H         1 <0>         0.4363
     58 H26        -0.5207    1.8035   -0.8217 H         1 <0>         0.4352
@<TRIPOS>BOND
     1    1    2 1
     2    1   34 1
     3    1   35 1
     4    1   36 1
     5    2    3 1
     6    2   37 1
     7    2   38 1
     8    3    8 ar
     9    3    4 ar
    10    4    5 ar
    11    4   39 1
    12    5    6 ar
    13    5   40 1
    14    6    7 ar
    15    6    9 1
    16    7    8 ar
    17    7   41 1
    18    8   42 1
    19    9   15 1
    20    9   10 2
    21   10   11 1
    22   11   12 1
    23   11   24 1
    24   11   56 1
    25   13   14 1
    26   13   15 1
    27   13   16 1
    28   13   56 1
    29   15   43 1
    30   15   44 1
    31   16   21 ar
    32   16   17 ar
    33   17   18 ar
    34   17   45 1
    35   18   19 ar
    36   18   23 1
    37   19   20 ar
    38   19   46 1
    39   20   21 ar
    40   20   47 1
    41   21   22 1
    42   22   48 1
    43   24   29 ar
    44   24   25 ar
    45   25   26 ar
    46   25   49 1
    47   26   27 ar
    48   26   50 1
    49   27   28 ar
    50   27   30 1
    51   28   29 ar
    52   28   51 1
    53   29   52 1
    54   30   31 2
    55   30   32 1
    56   32   33 1
    57   33   53 1
    58   33   54 1
    59   33   55 1
    60   56   57 1
    61   56   58 1
@<TRIPOS>MOLECULE
ZINC21264052
   68    70     0     0     0
SMALL
USER_CHARGES
1-[(1R)-1-(4-methoxyphenyl)ethyl]-1-(4-pyridylmethyl)-3-(2,2,6,6-tetramethyl-4-piperidyl)thiourea
@<TRIPOS>ATOM
      1 C1         -3.1483    5.1320   -3.5487 C.3       1 <0>        -0.1743
      2 C2         -2.3009    4.9287   -2.2911 C.3       1 <0>         0.1980
      3 H1         -2.9191    4.9924   -1.3835 H         1 <0>         0.1084
      4 C3         -1.2148    5.9723   -2.2431 C.ar      1 <0>        -0.1167
      5 C4         -0.1131    5.8603   -3.0709 C.ar      1 <0>        -0.0713
      6 C5          0.8812    6.8187   -3.0328 C.ar      1 <0>        -0.2106
      7 C6          0.7792    7.8878   -2.1546 C.ar      1 <0>         0.1343
      8 C7         -0.3246    7.9948   -1.3210 C.ar      1 <0>        -0.1473
      9 C8         -1.3191    7.0371   -1.3673 C.ar      1 <0>        -0.0329
     10 O1          1.7591    8.8284   -2.1107 O.3       1 <0>        -0.3163
     11 C9          2.8660    8.6540   -2.9975 C.3       1 <0>         0.0251
     12 N1         -1.6956    3.5949   -2.3205 N.pl3     1 <0>        -0.5520
     13 C10        -1.8565    2.7434   -3.5017 C.3       1 <0>         0.1178
     14 C11        -3.0105    1.7984   -3.2863 C.ar      1 <0>        -0.0689
     15 C12        -2.8363    0.6127   -2.5890 C.ar      1 <0>        -0.1712
     16 C13        -3.9188   -0.2271   -2.4076 C.ar      1 <0>         0.1094
     17 N2         -5.1032    0.0838   -2.8969 N.ar      1 <0>        -0.4731
     18 C14        -5.3045    1.2004   -3.5690 C.ar      1 <0>         0.1141
     19 C15        -4.2703    2.0912   -3.7858 C.ar      1 <0>        -0.1561
     20 C16        -0.9908    3.1513   -1.2608 C.2       1 <0>         0.5642
     21 S1         -0.8028    4.1464    0.1195 S.2       1 <0>        -0.6122
     22 N3         -0.4339    1.9242   -1.2878 N.pl3     1 <0>        -0.7076
     23 C17         0.3339    1.4409   -0.1335 C.3       1 <0>         0.1406
     24 C18         1.7847    1.9043   -0.2638 C.3       1 <0>        -0.1409
     25 C19         2.6187    1.3884    0.9060 C.3       1 <0>         0.0719
     26 N4          2.4329   -0.0257    1.1579 N.4       1 <0>        -0.5140
     27 C20         1.1089   -0.6100    1.0749 C.3       1 <0>         0.0609
     28 C21         0.3166   -0.0888   -0.1235 C.3       1 <0>        -0.1439
     29 C22         0.3124   -0.3774    2.3623 C.3       1 <0>        -0.1814
     30 C23         1.2657   -2.1366    0.9000 C.3       1 <0>        -0.1802
     31 C24         2.3138    2.2194    2.1582 C.3       1 <0>        -0.1733
     32 C25         4.1053    1.6225    0.5548 C.3       1 <0>        -0.1769
     33 H2         -3.9411    4.3702   -3.5837 H         1 <0>         0.0742
     34 H3         -2.5102    5.0384   -4.4398 H         1 <0>         0.0696
     35 H4         -3.6028    6.1335   -3.5266 H         1 <0>         0.0908
     36 H5         -0.0317    5.0251   -3.7508 H         1 <0>         0.1076
     37 H6          1.7393    6.7334   -3.6831 H         1 <0>         0.1229
     38 H7         -0.4061    8.8260   -0.6362 H         1 <0>         0.1309
     39 H8         -2.1785    7.1200   -0.7185 H         1 <0>         0.1294
     40 H9          3.5799    9.4794   -2.8595 H         1 <0>         0.1038
     41 H10         2.5060    8.6505   -4.0369 H         1 <0>         0.0566
     42 H11         3.3640    7.6979   -2.7787 H         1 <0>         0.0528
     43 H12        -2.0565    3.3717   -4.3821 H         1 <0>         0.1229
     44 H13        -0.9350    2.1655   -3.6654 H         1 <0>         0.0885
     45 H14        -1.8677    0.3504   -2.1898 H         1 <0>         0.1224
     46 H15        -3.7921   -1.1509   -1.8627 H         1 <0>         0.1570
     47 H16        -6.2888    1.4212   -3.9548 H         1 <0>         0.1644
     48 H17        -4.4412    3.0037   -4.3376 H         1 <0>         0.1457
     49 H18        -0.5547    1.2848   -2.1747 H         1 <0>         0.4135
     50 H19        -0.1380    1.8542    0.7701 H         1 <0>         0.1352
     51 H20         2.2097    1.5192   -1.2025 H         1 <0>         0.0834
     52 H21         1.8194    3.0037   -0.2695 H         1 <0>         0.1231
     53 H22         3.0253   -0.6076    0.4365 H         1 <0>         0.4415
     54 H23        -0.7224   -0.4433   -0.0535 H         1 <0>         0.1134
     55 H24         0.7712   -0.4667   -1.0511 H         1 <0>         0.0917
     56 H25        -0.6841   -0.8327    2.2642 H         1 <0>         0.1038
     57 H26         0.2061    0.7033    2.5375 H         1 <0>         0.0860
     58 H27         0.8432   -0.8358    3.2097 H         1 <0>         0.0856
     59 H28         0.2712   -2.6022    0.8346 H         1 <0>         0.1071
     60 H29         1.8084   -2.5506    1.7626 H         1 <0>         0.0867
     61 H30         1.8291   -2.3441   -0.0217 H         1 <0>         0.0817
     62 H31         2.9151    1.8471    3.0007 H         1 <0>         0.0785
     63 H32         1.2451    2.1333    2.4041 H         1 <0>         0.0854
     64 H33         2.5625    3.2739    1.9680 H         1 <0>         0.1063
     65 H34         4.7380    1.2611    1.3789 H         1 <0>         0.0832
     66 H35         4.2810    2.6975    0.4018 H         1 <0>         0.1052
     67 H36         4.3550    1.0754   -0.3663 H         1 <0>         0.0782
     68 H37         2.7638   -0.2627    2.1798 H         1 <0>         0.4470
@<TRIPOS>BOND
     1    1    2 1
     2    1   33 1
     3    1   34 1
     4    1   35 1
     5    2    3 1
     6    2    4 1
     7    2   12 1
     8    4    9 ar
     9    4    5 ar
    10    5    6 ar
    11    5   36 1
    12    6    7 ar
    13    6   37 1
    14    7    8 ar
    15    7   10 1
    16    8    9 ar
    17    8   38 1
    18    9   39 1
    19   10   11 1
    20   11   40 1
    21   11   41 1
    22   11   42 1
    23   12   13 1
    24   12   20 1
    25   13   14 1
    26   13   43 1
    27   13   44 1
    28   14   19 ar
    29   14   15 ar
    30   15   16 ar
    31   15   45 1
    32   16   17 ar
    33   16   46 1
    34   17   18 ar
    35   18   19 ar
    36   18   47 1
    37   19   48 1
    38   20   21 2
    39   20   22 1
    40   22   23 1
    41   22   49 1
    42   23   28 1
    43   23   24 1
    44   23   50 1
    45   24   25 1
    46   24   51 1
    47   24   52 1
    48   25   26 1
    49   25   31 1
    50   25   32 1
    51   26   27 1
    52   26   53 1
    53   26   68 1
    54   27   28 1
    55   27   29 1
    56   27   30 1
    57   28   54 1
    58   28   55 1
    59   29   56 1
    60   29   57 1
    61   29   58 1
    62   30   59 1
    63   30   60 1
    64   30   61 1
    65   31   62 1
    66   31   63 1
    67   31   64 1
    68   32   65 1
    69   32   66 1
    70   32   67 1
@<TRIPOS>MOLECULE
ZINC38547550
   58    61     0     0     0
SMALL
USER_CHARGES

@<TRIPOS>ATOM
      1 C1          0.9431    1.0714   -0.2628 C.3       1 <0>        -0.1429
      2 C2          0.7615   -0.4188   -0.1305 C.ar      1 <0>         0.0774
      3 C3          0.8203   -1.2431   -1.2467 C.ar      1 <0>        -0.1704
      4 C4          0.6504   -2.6040   -1.0918 C.ar      1 <0>         0.1505
      5 N1          0.4337   -3.1278    0.1000 N.ar      1 <0>        -0.5072
      6 C5          0.3703   -2.3757    1.1877 C.ar      1 <0>         0.4504
      7 C6          0.5383   -0.9969    1.1059 C.ar      1 <0>        -0.1976
      8 N2          0.1396   -2.9694    2.4232 N.pl3     1 <0>        -0.7044
      9 C7          0.0682   -2.1432    3.6310 C.3       1 <0>         0.2505
     10 H1         -0.4944   -1.2345    3.4169 H         1 <0>         0.1235
     11 C8          1.4620   -1.7787    4.0733 C.ar      1 <0>        -0.0741
     12 C9          2.5141   -2.6401    3.8217 C.ar      1 <0>        -0.1543
     13 C10         3.7938   -2.3085    4.2262 C.ar      1 <0>        -0.0656
     14 C11         4.0245   -1.1154    4.8835 C.ar      1 <0>        -0.1972
     15 C12         2.9708   -0.2496    5.1371 C.ar      1 <0>         0.1464
     16 C13         1.6883   -0.5819    4.7247 C.ar      1 <0>        -0.1356
     17 O1          3.1951    0.9246    5.7835 O.3       1 <0>        -0.3111
     18 C14         4.5412    1.2036    6.1735 C.3       1 <0>         0.0235
     19 C15        -0.6211   -2.9144    4.7270 C.2       1 <0>        -0.1746
     20 C16        -1.6146   -2.3234    5.4859 C.2       1 <0>        -0.1028
     21 C17        -2.2141   -3.0451    6.4630 C.2       1 <0>        -0.1669
     22 S1         -1.3736   -4.6149    6.3363 S.3       1 <0>         0.1922
     23 C18        -0.2806   -4.2084    4.9846 C.2       1 <0>         0.0665
     24 N3          0.6761   -5.0080    4.3560 N.am      1 <0>        -0.6272
     25 C19         0.9430   -6.2401    4.8326 C.2       1 <0>         0.6023
     26 O2          0.3502   -6.6558    5.8111 O.2       1 <0>        -0.4672
     27 C20         1.9476   -7.0797    4.1726 C.2       1 <0>        -0.1037
     28 C21         2.3091   -8.3424    4.5465 C.2       1 <0>        -0.0865
     29 C22         3.2952   -8.7646    3.6411 C.2       1 <0>        -0.2176
     30 C23         3.4900   -7.7541    2.7654 C.2       1 <0>         0.0087
     31 O3          2.6725   -6.7425    3.0859 O.3       1 <0>        -0.1777
     32 C24        -3.3081   -2.6297    7.4126 C.3       1 <0>        -0.0733
     33 C25        -2.0244   -0.8960    5.2297 C.3       1 <0>        -0.1056
     34 H2          2.0000    1.3188   -0.1640 H         1 <0>         0.1066
     35 H3          0.5836    1.3959   -1.2393 H         1 <0>         0.0965
     36 H4          0.3769    1.5772    0.5193 H         1 <0>         0.0936
     37 H5          0.9969   -0.8234   -2.2260 H         1 <0>         0.1814
     38 H6          0.6951   -3.2486   -1.9572 H         1 <0>         0.2084
     39 H7          0.4907   -0.3859    1.9952 H         1 <0>         0.1769
     40 H8          0.0259   -3.9306    2.4857 H         1 <0>         0.4104
     41 H9          2.3358   -3.5735    3.3086 H         1 <0>         0.1041
     42 H10         4.6139   -2.9829    4.0285 H         1 <0>         0.1296
     43 H11         5.0243   -0.8571    5.1999 H         1 <0>         0.1359
     44 H12         0.8670    0.0926    4.9168 H         1 <0>         0.1383
     45 H13         4.5806    2.1689    6.6783 H         1 <0>         0.1084
     46 H14         4.8922    0.4249    6.8506 H         1 <0>         0.0599
     47 H15         5.1777    1.2299    5.2890 H         1 <0>         0.0593
     48 H16         1.1485   -4.6768    3.5763 H         1 <0>         0.4086
     49 H17         1.9133   -8.9067    5.3779 H         1 <0>         0.1685
     50 H18         3.8031   -9.7177    3.6441 H         1 <0>         0.1666
     51 H19         4.1870   -7.7622    1.9405 H         1 <0>         0.2180
     52 H20        -4.2784   -2.8532    6.9690 H         1 <0>         0.0832
     53 H21        -3.2026   -3.1761    8.3498 H         1 <0>         0.0775
     54 H22        -3.2346   -1.5595    7.6056 H         1 <0>         0.0853
     55 H23        -2.8295   -0.8754    4.4952 H         1 <0>         0.0733
     56 H24        -2.3696   -0.4446    6.1598 H         1 <0>         0.0789
     57 H25        -1.1707   -0.3357    4.8488 H         1 <0>         0.0625
     58 H26         0.3177   -4.0874    0.1810 H         1 <0>         0.4401
@<TRIPOS>BOND
     1    1    2 1
     2    1   34 1
     3    1   35 1
     4    1   36 1
     5    2    7 ar
     6    2    3 ar
     7    3    4 ar
     8    3   37 1
     9    4    5 ar
    10    4   38 1
    11    5    6 ar
    12    5   58 1
    13    6    7 ar
    14    6    8 1
    15    7   39 1
    16    8    9 1
    17    8   40 1
    18    9   10 1
    19    9   11 1
    20    9   19 1
    21   11   16 ar
    22   11   12 ar
    23   12   13 ar
    24   12   41 1
    25   13   14 ar
    26   13   42 1
    27   14   15 ar
    28   14   43 1
    29   15   16 ar
    30   15   17 1
    31   16   44 1
    32   17   18 1
    33   18   45 1
    34   18   46 1
    35   18   47 1
    36   19   23 2
    37   19   20 1
    38   20   21 2
    39   20   33 1
    40   21   22 1
    41   21   32 1
    42   22   23 1
    43   23   24 1
    44   24   25 am
    45   24   48 1
    46   25   26 2
    47   25   27 1
    48   27   31 1
    49   27   28 2
    50   28   29 1
    51   28   49 1
    52   29   30 2
    53   29   50 1
    54   30   31 1
    55   30   51 1
    56   32   52 1
    57   32   53 1
    58   32   54 1
    59   33   55 1
    60   33   56 1
    61   33   57 1
@<TRIPOS>MOLECULE
ZINC39695979
   71    74     0     0     0
SMALL
USER_CHARGES

@<TRIPOS>ATOM
      1 C1         -0.1212   -7.0792    3.3352 C.3       1 <0>        -0.1482
      2 C2          1.3972   -7.2319    3.2246 C.3       1 <0>        -0.0913
      3 C3          2.0634   -5.9489    3.6501 C.ar      1 <0>        -0.0702
      4 C4          2.3215   -4.9618    2.7174 C.ar      1 <0>        -0.1093
      5 C5          2.9326   -3.7849    3.1076 C.ar      1 <0>        -0.1004
      6 C6          3.2853   -3.5949    4.4306 C.ar      1 <0>        -0.1072
      7 C7          3.0264   -4.5816    5.3635 C.ar      1 <0>        -0.1137
      8 C8          2.4114   -5.7568    4.9740 C.ar      1 <0>        -0.1143
      9 C9          3.9524   -2.3123    4.8559 C.3       1 <0>         0.1843
     10 H1          3.7608   -1.5390    4.1120 H         1 <0>         0.1004
     11 C10         5.4606   -2.5385    4.9795 C.3       1 <0>        -0.1569
     12 N1          3.4145   -1.8881    6.1509 N.am      1 <0>        -0.7213
     13 C11         3.4503   -0.5874    6.5020 C.2       1 <0>         0.5218
     14 O1          3.9277    0.2320    5.7459 O.2       1 <0>        -0.5190
     15 C12         2.8970   -0.1510    7.8341 C.3       1 <0>        -0.1137
     16 H2          2.0946   -0.8187    8.1480 H         1 <0>         0.1112
     17 C13         2.3849    1.3046    7.7532 C.3       1 <0>         0.1160
     18 N2          2.7422    1.9004    9.0622 N.am      1 <0>        -0.6198
     19 C14         4.0835    1.3463    9.3657 C.3       1 <0>         0.0943
     20 C15         4.0121   -0.1192    8.8927 C.3       1 <0>        -0.0724
     21 C16         5.3416   -0.5381    8.2725 C.3       1 <0>        -0.1497
     22 C17         6.4227   -0.5553    9.3568 C.3       1 <0>        -0.0079
     23 N3          6.0383   -1.4927   10.4190 N.4       1 <0>        -0.5048
     24 C18         4.8075   -1.0314   11.0725 C.3       1 <0>        -0.0112
     25 C19         3.6580   -1.0345   10.0608 C.3       1 <0>        -0.1353
     26 C20         2.0124    2.7530    9.8085 C.2       1 <0>         0.5828
     27 O2          0.8768    3.0320    9.4769 O.2       1 <0>        -0.5143
     28 C21         2.5932    3.3489   11.0305 C.ar      1 <0>        -0.1415
     29 C22         3.9785    3.4130   11.1890 C.ar      1 <0>        -0.1035
     30 C23         4.5139    3.9707   12.3315 C.ar      1 <0>        -0.1284
     31 C24         3.6810    4.4656   13.3192 C.ar      1 <0>        -0.0471
     32 C25         2.3070    4.4048   13.1687 C.ar      1 <0>        -0.1196
     33 C26         1.7587    3.8552   12.0282 C.ar      1 <0>        -0.0523
     34 C27         4.2730    5.0731   14.5649 C.3       1 <0>        -0.0931
     35 C28         4.4864    6.5727   14.3491 C.3       1 <0>        -0.1505
     36 H3         -0.4526   -6.2661    2.6893 H         1 <0>         0.0568
     37 H4         -0.6031   -8.0072    3.0275 H         1 <0>         0.0625
     38 H5         -0.3896   -6.8554    4.3677 H         1 <0>         0.0549
     39 H6          1.7286   -8.0450    3.8706 H         1 <0>         0.0740
     40 H7          1.6655   -7.4557    2.1921 H         1 <0>         0.0756
     41 H8          2.0460   -5.1102    1.6837 H         1 <0>         0.1274
     42 H9          3.1349   -3.0140    2.3788 H         1 <0>         0.1262
     43 H10         3.3022   -4.4333    6.3971 H         1 <0>         0.1136
     44 H11         2.2057   -6.5262    5.7035 H         1 <0>         0.1237
     45 H12         5.8608   -2.8541    4.0160 H         1 <0>         0.0743
     46 H13         5.9431   -1.6108    5.2871 H         1 <0>         0.0626
     47 H14         5.6522   -3.3117    5.7234 H         1 <0>         0.0564
     48 H15         3.0327   -2.5434    6.7556 H         1 <0>         0.3991
     49 H16         2.8833    1.8383    6.9440 H         1 <0>         0.0997
     50 H17         1.3043    1.3199    7.6109 H         1 <0>         0.0976
     51 H18         4.8523    1.8879    8.8146 H         1 <0>         0.0891
     52 H19         4.2797    1.3902   10.4369 H         1 <0>         0.0953
     53 H20         5.2438   -1.5341    7.8405 H         1 <0>         0.0988
     54 H21         5.6192    0.1715    7.4931 H         1 <0>         0.1276
     55 H22         7.3702   -0.8704    8.9199 H         1 <0>         0.1401
     56 H23         6.5315    0.4446    9.7769 H         1 <0>         0.1328
     57 H24         5.8835   -2.4063   10.0197 H         1 <0>         0.4284
     58 H25         4.5643   -1.6975   11.9003 H         1 <0>         0.1406
     59 H26         4.9547   -0.0202   11.4517 H         1 <0>         0.1326
     60 H27         2.7486   -0.6749   10.5421 H         1 <0>         0.1191
     61 H28         3.4994   -2.0484    9.6934 H         1 <0>         0.0973
     62 H29         4.6297    3.0264   10.4190 H         1 <0>         0.1307
     63 H30         5.5856    4.0209   12.4553 H         1 <0>         0.1287
     64 H31         1.6623    4.7925   13.9436 H         1 <0>         0.1344
     65 H32         0.6860    3.8127   11.9097 H         1 <0>         0.1375
     66 H33         3.5927    4.9197   15.4026 H         1 <0>         0.0783
     67 H34         5.2295    4.5975   14.7818 H         1 <0>         0.0754
     68 H35         3.5299    7.0483   14.1322 H         1 <0>         0.0592
     69 H36         4.9146    7.0121   15.2501 H         1 <0>         0.0647
     70 H37         5.1667    6.7261   13.5114 H         1 <0>         0.0569
     71 H38         6.7795   -1.5479   11.1014 H         1 <0>         0.4343
@<TRIPOS>BOND
     1    1    2 1
     2    1   36 1
     3    1   37 1
     4    1   38 1
     5    2    3 1
     6    2   39 1
     7    2   40 1
     8    3    8 ar
     9    3    4 ar
    10    4    5 ar
    11    4   41 1
    12    5    6 ar
    13    5   42 1
    14    6    7 ar
    15    6    9 1
    16    7    8 ar
    17    7   43 1
    18    8   44 1
    19    9   10 1
    20    9   11 1
    21    9   12 1
    22   11   45 1
    23   11   46 1
    24   11   47 1
    25   12   13 am
    26   12   48 1
    27   13   14 2
    28   13   15 1
    29   15   16 1
    30   15   20 1
    31   15   17 1
    32   17   18 1
    33   17   49 1
    34   17   50 1
    35   18   19 1
    36   18   26 am
    37   19   20 1
    38   19   51 1
    39   19   52 1
    40   20   25 1
    41   20   21 1
    42   21   22 1
    43   21   53 1
    44   21   54 1
    45   22   23 1
    46   22   55 1
    47   22   56 1
    48   23   24 1
    49   23   57 1
    50   23   71 1
    51   24   25 1
    52   24   58 1
    53   24   59 1
    54   25   60 1
    55   25   61 1
    56   26   27 2
    57   26   28 1
    58   28   33 ar
    59   28   29 ar
    60   29   30 ar
    61   29   62 1
    62   30   31 ar
    63   30   63 1
    64   31   32 ar
    65   31   34 1
    66   32   33 ar
    67   32   64 1
    68   33   65 1
    69   34   35 1
    70   34   66 1
    71   34   67 1
    72   35   68 1
    73   35   69 1
    74   35   70 1
@<TRIPOS>MOLECULE
ZINC28657934
   62    65     0     0     0
SMALL
USER_CHARGES

@<TRIPOS>ATOM
      1 C1         -0.0178    1.4608    0.0101 C.3       1 <0>         0.0234
      2 N1          0.0021   -0.0041    0.0020 N.pl3     1 <0>        -0.3772
      3 C2          0.0086   -0.8102   -1.1042 C.2       1 <0>         0.0193
      4 C3          0.0285   -2.0813   -0.6599 C.2       1 <0>         0.0053
      5 N2          0.0339   -2.0521    0.6810 N.pl3     1 <0>        -0.4761
      6 C4          0.0233   -0.8111    1.0845 C.cat     1 <0>         0.3081
      7 C5          0.0299   -0.3544    2.5206 C.3       1 <0>         0.1945
      8 H1         -0.5442   -1.0547    3.1273 H         1 <0>         0.1125
      9 C6          1.4493   -0.3001    3.0240 C.ar      1 <0>        -0.1481
     10 C7          2.2501    0.7842    2.7169 C.ar      1 <0>        -0.0628
     11 C8          3.5517    0.8352    3.1784 C.ar      1 <0>        -0.1496
     12 C9          4.0538   -0.2001    3.9485 C.ar      1 <0>         0.1317
     13 C10         3.2509   -1.2856    4.2554 C.ar      1 <0>        -0.1488
     14 C11         1.9479   -1.3320    3.7972 C.ar      1 <0>        -0.0695
     15 F1          5.3263   -0.1515    4.3997 F         1 <0>        -0.1247
     16 N3         -0.5735    0.9818    2.6123 N.3       1 <0>        -0.6746
     17 C12        -2.0364    0.8930    2.7131 C.3       1 <0>         0.0123
     18 C13        -2.6276    2.3011    2.8065 C.3       1 <0>         0.1136
     19 H2         -2.1662    2.8344    3.6376 H         1 <0>         0.1171
     20 C14        -4.1372    2.2061    3.0366 C.3       1 <0>         0.0298
     21 O1         -4.6713    3.5159    3.2399 O.3       1 <0>        -0.3557
     22 C15        -6.0823    3.5397    3.4651 C.3       1 <0>         0.1837
     23 C16        -6.3572    3.4213    4.9421 C.ar      1 <0>        -0.1295
     24 C17        -5.5618    4.0965    5.8490 C.ar      1 <0>        -0.0616
     25 C18        -5.8133    3.9890    7.2037 C.ar      1 <0>        -0.1554
     26 C19        -6.8624    3.2047    7.6524 C.ar      1 <0>         0.1079
     27 C20        -7.6584    2.5289    6.7431 C.ar      1 <0>        -0.1536
     28 C21        -7.4082    2.6421    5.3887 C.ar      1 <0>        -0.0792
     29 F2         -7.1089    3.0985    8.9765 F         1 <0>        -0.1353
     30 C22        -6.6513    4.8368    2.9506 C.ar      1 <0>        -0.1022
     31 C23        -5.9104    6.0004    3.0418 C.ar      1 <0>        -0.0579
     32 C24        -6.4310    7.1904    2.5699 C.ar      1 <0>        -0.1550
     33 C25        -7.6951    7.2170    2.0056 C.ar      1 <0>         0.1081
     34 C26        -8.4362    6.0510    1.9149 C.ar      1 <0>        -0.1530
     35 C27        -7.9114    4.8612    2.3826 C.ar      1 <0>        -0.0782
     36 F3         -8.2053    8.3799    1.5444 F         1 <0>        -0.1354
     37 O2         -2.3746    3.0056    1.5893 O.3       1 <0>        -0.5366
     38 H3          1.0048    1.8381    0.0023 H         1 <0>         0.1003
     39 H4         -0.5450    1.8219   -0.8730 H         1 <0>         0.1066
     40 H5         -0.5280    1.8123    0.9069 H         1 <0>         0.1670
     41 H6         -0.0008   -0.4887   -2.1352 H         1 <0>         0.2235
     42 H7          0.0383   -2.9687   -1.2754 H         1 <0>         0.2244
     43 H8          1.8583    1.5915    2.1160 H         1 <0>         0.1427
     44 H9          4.1772    1.6822    2.9381 H         1 <0>         0.1476
     45 H10         3.6416   -2.0939    4.8557 H         1 <0>         0.1479
     46 H11         1.3200   -2.1765    4.0402 H         1 <0>         0.1382
     47 H12        -0.1884    1.5001    3.3876 H         1 <0>         0.3812
     48 H13        -2.4316    0.3908    1.8301 H         1 <0>         0.0812
     49 H14        -2.3054    0.3261    3.6044 H         1 <0>         0.0672
     50 H15        -4.6096    1.7522    2.1655 H         1 <0>         0.0562
     51 H16        -4.3328    1.5934    3.9166 H         1 <0>         0.0630
     52 H17        -6.5480    2.7053    2.9408 H         1 <0>         0.0810
     53 H18        -4.7433    4.7079    5.4988 H         1 <0>         0.1363
     54 H19        -5.1915    4.5163    7.9120 H         1 <0>         0.1384
     55 H20        -8.4768    1.9166    7.0920 H         1 <0>         0.1390
     56 H21        -8.0317    2.1186    4.6790 H         1 <0>         0.1325
     57 H22        -4.9246    5.9795    3.4823 H         1 <0>         0.1371
     58 H23        -5.8522    8.0994    2.6416 H         1 <0>         0.1387
     59 H24        -9.4225    6.0706    1.4752 H         1 <0>         0.1396
     60 H25        -8.4875    3.9507    2.3079 H         1 <0>         0.1323
     61 H26        -2.7569    2.5870    0.8058 H         1 <0>         0.3710
     62 H27         0.0475   -2.8306    1.2596 H         1 <0>         0.4600
@<TRIPOS>BOND
     1    1    2 1
     2    1   38 1
     3    1   39 1
     4    1   40 1
     5    2    6 1
     6    2    3 1
     7    3    4 2
     8    3   41 1
     9    4    5 1
    10    4   42 1
    11    5    6 2
    12    5   62 1
    13    6    7 1
    14    7    8 1
    15    7    9 1
    16    7   16 1
    17    9   14 ar
    18    9   10 ar
    19   10   11 ar
    20   10   43 1
    21   11   12 ar
    22   11   44 1
    23   12   13 ar
    24   12   15 1
    25   13   14 ar
    26   13   45 1
    27   14   46 1
    28   16   17 1
    29   16   47 1
    30   17   18 1
    31   17   48 1
    32   17   49 1
    33   18   19 1
    34   18   20 1
    35   18   37 1
    36   20   21 1
    37   20   50 1
    38   20   51 1
    39   21   22 1
    40   22   23 1
    41   22   30 1
    42   22   52 1
    43   23   28 ar
    44   23   24 ar
    45   24   25 ar
    46   24   53 1
    47   25   26 ar
    48   25   54 1
    49   26   27 ar
    50   26   29 1
    51   27   28 ar
    52   27   55 1
    53   28   56 1
    54   30   35 ar
    55   30   31 ar
    56   31   32 ar
    57   31   57 1
    58   32   33 ar
    59   32   58 1
    60   33   34 ar
    61   33   36 1
    62   34   35 ar
    63   34   59 1
    64   35   60 1
    65   37   61 1
@<TRIPOS>MOLECULE
ZINC04192251
   55    57     0     0     0
SMALL
USER_CHARGES
4-amino-N'-cyclopentyl-N'-[1-(tetrahydrofuran-2-ylmethylcarbamoyl)ethyl]isothiazole-3,5-dicarboxamide
@<TRIPOS>ATOM
      1 C1         -2.7479    0.1278   -1.4272 C.3       1 <0>        -0.1880
      2 C2         -2.5040    0.8898   -0.1230 C.3       1 <0>         0.1237
      3 H1         -2.4792    0.1866    0.7094 H         1 <0>         0.1294
      4 C3         -1.1869    1.6175   -0.2053 C.2       1 <0>         0.5014
      5 O1         -1.1536    2.8252   -0.0991 O.2       1 <0>        -0.5144
      6 N1         -0.0458    0.9262   -0.3968 N.am      1 <0>        -0.7232
      7 C4          1.2338    1.6342   -0.4828 C.3       1 <0>         0.1253
      8 C5          2.3612    0.6245   -0.7075 C.3       1 <0>         0.0633
      9 H2          2.1803    0.0653   -1.6255 H         1 <0>         0.0762
     10 C6          3.7124    1.3596   -0.7994 C.3       1 <0>        -0.1493
     11 C7          4.5594    0.7404    0.3390 C.3       1 <0>        -0.1562
     12 C8          3.8344   -0.6068    0.5873 C.3       1 <0>         0.0461
     13 O2          2.4401   -0.2766    0.4097 O.3       1 <0>        -0.3711
     14 N2         -3.5840    1.8571    0.0868 N.am      1 <0>        -0.5837
     15 C9         -3.8052    2.9304   -0.8855 C.3       1 <0>         0.1382
     16 C10        -2.8815    2.7367   -2.1057 C.3       1 <0>        -0.1343
     17 C11        -2.4688    4.1760   -2.5021 C.3       1 <0>        -0.1191
     18 C12        -2.2982    4.8729   -1.1293 C.3       1 <0>        -0.1118
     19 C13        -3.4343    4.2886   -0.2646 C.3       1 <0>        -0.1331
     20 C14        -4.3742    1.7595    1.1743 C.2       1 <0>         0.6270
     21 O3         -4.1982    0.8605    1.9757 O.2       1 <0>        -0.5408
     22 C15        -5.4443    2.7350    1.3916 C.2       1 <0>        -0.3912
     23 C16        -6.2618    2.9177    2.5084 C.2       1 <0>         0.2754
     24 C17        -7.1712    3.9619    2.3396 C.2       1 <0>        -0.0412
     25 N3         -7.1806    4.6301    1.2075 N.2       1 <0>        -0.4580
     26 S1         -6.0567    4.0010    0.2991 S.3       1 <0>         0.4753
     27 C18        -8.1162    4.3083    3.4170 C.2       1 <0>         0.6018
     28 O4         -8.1022    3.6857    4.4615 O.2       1 <0>        -0.5431
     29 N4         -8.9955    5.3150    3.2443 N.am      1 <0>        -0.8314
     30 N5         -6.1766    2.1479    3.6608 N.pl3     1 <0>        -0.8064
     31 H3         -1.8994   -0.5254   -1.6305 H         1 <0>         0.0733
     32 H4         -3.6537   -0.4714   -1.3339 H         1 <0>         0.0740
     33 H5         -2.8646    0.8375   -2.2462 H         1 <0>         0.0917
     34 H6         -0.0724   -0.0397   -0.4818 H         1 <0>         0.4043
     35 H7          1.2048    2.3375   -1.3151 H         1 <0>         0.0810
     36 H8          1.4119    2.1769    0.4455 H         1 <0>         0.0749
     37 H9          4.1812    1.1769   -1.7664 H         1 <0>         0.0811
     38 H10         3.5770    2.4287   -0.6360 H         1 <0>         0.0829
     39 H11         5.5866    0.5752    0.0138 H         1 <0>         0.0827
     40 H12         4.5316    1.3678    1.2299 H         1 <0>         0.0788
     41 H13         4.1485   -1.3521   -0.1435 H         1 <0>         0.0627
     42 H14         4.0211   -0.9621    1.6007 H         1 <0>         0.0949
     43 H15        -4.8479    2.9372   -1.2029 H         1 <0>         0.0794
     44 H16        -2.0047    2.1503   -1.8312 H         1 <0>         0.0922
     45 H17        -3.4225    2.2567   -2.9213 H         1 <0>         0.0728
     46 H18        -3.2549    4.6568   -3.0843 H         1 <0>         0.0659
     47 H19        -1.5286    4.1733   -3.0534 H         1 <0>         0.0665
     48 H20        -2.4134    5.9518   -1.2323 H         1 <0>         0.0564
     49 H21        -1.3272    4.6335   -0.6958 H         1 <0>         0.0948
     50 H22        -4.2968    4.9549   -0.2816 H         1 <0>         0.0681
     51 H23        -3.0897    4.1492    0.7600 H         1 <0>         0.0793
     52 H24        -9.0067    5.8116    2.4111 H         1 <0>         0.4114
     53 H25        -9.6172    5.5429    3.9531 H         1 <0>         0.4091
     54 H26        -5.5208    1.4356    3.7208 H         1 <0>         0.4160
     55 H27        -6.7728    2.3223    4.4057 H         1 <0>         0.4189
@<TRIPOS>BOND
     1    1    2 1
     2    1   31 1
     3    1   32 1
     4    1   33 1
     5    2    3 1
     6    2    4 1
     7    2   14 1
     8    4    5 2
     9    4    6 am
    10    6    7 1
    11    6   34 1
    12    7    8 1
    13    7   35 1
    14    7   36 1
    15    8    9 1
    16    8   13 1
    17    8   10 1
    18   10   11 1
    19   10   37 1
    20   10   38 1
    21   11   12 1
    22   11   39 1
    23   11   40 1
    24   12   13 1
    25   12   41 1
    26   12   42 1
    27   14   15 1
    28   14   20 am
    29   15   19 1
    30   15   16 1
    31   15   43 1
    32   16   17 1
    33   16   44 1
    34   16   45 1
    35   17   18 1
    36   17   46 1
    37   17   47 1
    38   18   19 1
    39   18   48 1
    40   18   49 1
    41   19   50 1
    42   19   51 1
    43   20   21 2
    44   20   22 1
    45   22   26 1
    46   22   23 2
    47   23   24 1
    48   23   30 1
    49   24   25 2
    50   24   27 1
    51   25   26 1
    52   27   28 2
    53   27   29 am
    54   29   52 1
    55   29   53 1
    56   30   54 1
    57   30   55 1
@<TRIPOS>MOLECULE
ZINC09509538
   49    51     0     0     0
SMALL
USER_CHARGES
2-[(4-amino-5-phenyl-1,2,4-triazol-3-yl)sulfanyl]-N-[2-(4-sulfamoylphenyl)ethyl]acetamide
@<TRIPOS>ATOM
      1 C1          6.2512    9.5485    0.9410 C.ar      1 <0>        -0.1024
      2 C2          4.8907    9.4687    1.1800 C.ar      1 <0>        -0.1098
      3 C3          4.2129    8.2914    0.9397 C.ar      1 <0>        -0.1217
      4 C4          4.9027    7.1792    0.4545 C.ar      1 <0>        -0.0206
      5 C5          6.2761    7.2647    0.2211 C.ar      1 <0>        -0.0720
      6 C6          6.9408    8.4498    0.4597 C.ar      1 <0>        -0.1110
      7 C7          4.1828    5.9143    0.1948 C.2       1 <0>         0.1940
      8 N1          4.7213    4.7265    0.0462 N.2       1 <0>        -0.2519
      9 N2          3.8032    3.8514   -0.1607 N.2       1 <0>        -0.2895
     10 C8          2.6224    4.4287   -0.1658 C.2       1 <0>         0.1737
     11 N3          2.8219    5.7601    0.0635 N.pl3     1 <0>        -0.3029
     12 N4          1.8690    6.7354    0.1455 N.3       1 <0>        -0.5848
     13 S1          1.0706    3.6321   -0.4145 S.3       1 <0>         0.1199
     14 C9          1.6269    1.9252   -0.6452 C.3       1 <0>        -0.1617
     15 C10         0.4336    1.0355   -0.8810 C.2       1 <0>         0.5356
     16 O1         -0.6826    1.5095   -0.8969 O.2       1 <0>        -0.5196
     17 N5          0.6073   -0.2862   -1.0797 N.am      1 <0>        -0.7244
     18 C11        -0.5526   -1.1512   -1.3089 C.3       1 <0>         0.1242
     19 C12        -0.0824   -2.5940   -1.5039 C.3       1 <0>        -0.1019
     20 C13        -1.2756   -3.4837   -1.7397 C.ar      1 <0>        -0.0230
     21 C14        -1.9112   -4.0855   -0.6697 C.ar      1 <0>        -0.1343
     22 C15        -3.0084   -4.8982   -0.8856 C.ar      1 <0>        -0.0150
     23 C16        -3.4645   -5.1163   -2.1722 C.ar      1 <0>        -0.6765
     24 C17        -2.8257   -4.5187   -3.2426 C.ar      1 <0>        -0.0149
     25 C18        -1.7311   -3.7026   -3.0263 C.ar      1 <0>        -0.1342
     26 S2         -4.8604   -6.1556   -2.4477 S.o2      1 <0>         2.7008
     27 O2         -5.6105   -6.1566   -1.2408 O.2       1 <0>        -0.9620
     28 O3         -5.4208   -5.7615   -3.6927 O.2       1 <0>        -0.9619
     29 N6         -4.2904   -7.6970   -2.6520 N.pl3     1 <0>        -1.2498
     30 H1          6.7771   10.4725    1.1308 H         1 <0>         0.1314
     31 H2          4.3582   10.3299    1.5558 H         1 <0>         0.1326
     32 H3          3.1509    8.2305    1.1263 H         1 <0>         0.1144
     33 H4          6.8165    6.4064   -0.1501 H         1 <0>         0.1393
     34 H5          8.0027    8.5187    0.2752 H         1 <0>         0.1350
     35 H6          1.6105    6.9085    1.1054 H         1 <0>         0.3696
     36 H7          2.1801    7.5835   -0.3038 H         1 <0>         0.3799
     37 H8          2.1577    1.5924    0.2467 H         1 <0>         0.1284
     38 H9          2.2941    1.8737   -1.5056 H         1 <0>         0.1290
     39 H10         1.5004   -0.6647   -1.0709 H         1 <0>         0.4063
     40 H11        -1.2199   -1.0997   -0.4485 H         1 <0>         0.0759
     41 H12        -1.0835   -0.8183   -2.2008 H         1 <0>         0.0761
     42 H13         0.5849   -2.6455   -2.3643 H         1 <0>         0.0891
     43 H14         0.4485   -2.9268   -0.6120 H         1 <0>         0.0890
     44 H15        -1.5525   -3.9181    0.3352 H         1 <0>         0.1363
     45 H16        -3.5076   -5.3648   -0.0493 H         1 <0>         0.1452
     46 H17        -3.1820   -4.6891   -4.2477 H         1 <0>         0.1452
     47 H18        -1.2321   -3.2356   -3.8626 H         1 <0>         0.1364
     48 H19        -3.3374   -7.8717   -2.6065 H         1 <0>         0.4166
     49 H20        -4.9097   -8.4251   -2.8173 H         1 <0>         0.4218
@<TRIPOS>BOND
     1    1    6 ar
     2    1    2 ar
     3    1   30 1
     4    2    3 ar
     5    2   31 1
     6    3    4 ar
     7    3   32 1
     8    4    5 ar
     9    4    7 1
    10    5    6 ar
    11    5   33 1
    12    6   34 1
    13    7   11 1
    14    7    8 2
    15    8    9 1
    16    9   10 2
    17   10   11 1
    18   10   13 1
    19   11   12 1
    20   12   35 1
    21   12   36 1
    22   13   14 1
    23   14   15 1
    24   14   37 1
    25   14   38 1
    26   15   16 2
    27   15   17 am
    28   17   18 1
    29   17   39 1
    30   18   19 1
    31   18   40 1
    32   18   41 1
    33   19   20 1
    34   19   42 1
    35   19   43 1
    36   20   25 ar
    37   20   21 ar
    38   21   22 ar
    39   21   44 1
    40   22   23 ar
    41   22   45 1
    42   23   24 ar
    43   23   26 1
    44   24   25 ar
    45   24   46 1
    46   25   47 1
    47   26   27 2
    48   26   28 2
    49   26   29 1
    50   29   48 1
    51   29   49 1
@<TRIPOS>MOLECULE
ZINC36591390
   61    62     0     0     0
SMALL
USER_CHARGES

@<TRIPOS>ATOM
      1 C1         -2.7882    1.6955   -2.9947 C.3       1 <0>        -0.1534
      2 C2         -2.4385    0.2091   -2.8984 C.3       1 <0>        -0.1213
      3 C3         -1.1340   -0.0578   -3.6521 C.3       1 <0>        -0.1327
      4 C4         -0.7843   -1.5442   -3.5558 C.3       1 <0>         0.1225
      5 N1          0.4647   -1.7997   -4.2775 N.am      1 <0>        -0.7263
      6 C5          0.9704   -3.0480   -4.3283 C.2       1 <0>         0.5226
      7 O1          0.3914   -3.9597   -3.7766 O.2       1 <0>        -0.5124
      8 C6          2.2553   -3.3108   -5.0706 C.3       1 <0>         0.1822
      9 H1          2.1988   -2.8653   -6.0638 H         1 <0>         0.1074
     10 C7          3.4070   -2.7029   -4.3122 C.ar      1 <0>        -0.1388
     11 C8          3.4642   -2.8154   -2.9312 C.ar      1 <0>         0.2218
     12 C9          4.5240   -2.2560   -2.2333 C.ar      1 <0>        -0.1837
     13 C10         5.5268   -1.5845   -2.9165 C.ar      1 <0>         0.1506
     14 C11         5.4700   -1.4728   -4.2976 C.ar      1 <0>        -0.1892
     15 C12         4.4124   -2.0359   -4.9958 C.ar      1 <0>         0.1443
     16 O2          4.3591   -1.9305   -6.3496 O.3       1 <0>        -0.4921
     17 O3          6.5648   -1.0356   -2.2325 O.3       1 <0>        -0.4973
     18 O4          2.4816   -3.4735   -2.2618 O.3       1 <0>        -0.4870
     19 N2          2.4608   -4.7560   -5.1946 N.am      1 <0>        -0.5719
     20 C13         3.4914   -5.3472   -4.5583 C.2       1 <0>         0.5150
     21 O5          4.1689   -4.7104   -3.7795 O.2       1 <0>        -0.5177
     22 C14         3.8019   -6.7994   -4.8145 C.3       1 <0>         0.0950
     23 H2          3.3225   -7.1303   -5.7358 H         1 <0>         0.1290
     24 C15         3.3295   -7.6650   -3.6254 C.3       1 <0>        -0.1207
     25 C16         4.6125   -7.7475   -2.7662 C.3       1 <0>        -0.1558
     26 C17         5.7360   -7.5283   -3.7553 C.2       1 <0>         0.5295
     27 O6          6.9025   -7.7896   -3.5506 O.2       1 <0>        -0.5264
     28 N3          5.2532   -7.0017   -4.8963 N.am      1 <0>        -0.7150
     29 C18         1.5460   -5.5586   -6.0102 C.3       1 <0>         0.1669
     30 C19         0.2997   -4.7345   -6.3395 C.3       1 <0>        -0.1862
     31 C20         2.2451   -5.9671   -7.3084 C.3       1 <0>        -0.1730
     32 C21         1.1378   -6.8126   -5.2344 C.3       1 <0>        -0.1911
     33 H3         -1.9860    2.2868   -2.5531 H         1 <0>         0.0547
     34 H4         -2.9102    1.9730   -4.0417 H         1 <0>         0.0544
     35 H5         -3.7175    1.8856   -2.4578 H         1 <0>         0.0567
     36 H6         -2.3165   -0.0684   -1.8514 H         1 <0>         0.0655
     37 H7         -3.2407   -0.3822   -3.3400 H         1 <0>         0.0650
     38 H8         -1.2560    0.2197   -4.6991 H         1 <0>         0.0684
     39 H9         -0.3318    0.5335   -3.2105 H         1 <0>         0.0691
     40 H10        -0.6624   -1.8217   -2.5088 H         1 <0>         0.0700
     41 H11        -1.5865   -2.1355   -3.9974 H         1 <0>         0.0672
     42 H12         0.9278   -1.0705   -4.7187 H         1 <0>         0.3973
     43 H13         4.5683   -2.3430   -1.1577 H         1 <0>         0.1329
     44 H14         6.2507   -0.9495   -4.8296 H         1 <0>         0.1345
     45 H15         3.8940   -1.1435   -6.6649 H         1 <0>         0.3893
     46 H16         7.3169   -1.6318   -2.1139 H         1 <0>         0.3958
     47 H17         2.6323   -4.4249   -2.1775 H         1 <0>         0.3911
     48 H18         2.5254   -7.1719   -3.0792 H         1 <0>         0.0978
     49 H19         3.0209   -8.6548   -3.9617 H         1 <0>         0.1001
     50 H20         4.6144   -6.9653   -2.0072 H         1 <0>         0.1089
     51 H21         4.6987   -8.7303   -2.3027 H         1 <0>         0.1074
     52 H22         5.7933   -6.7842   -5.6721 H         1 <0>         0.4131
     53 H23         0.5918   -3.8348   -6.8813 H         1 <0>         0.0545
     54 H24        -0.3752   -5.3273   -6.9569 H         1 <0>         0.0721
     55 H25        -0.2052   -4.4541   -5.4151 H         1 <0>         0.1011
     56 H26         3.0967   -6.6068   -7.0768 H         1 <0>         0.0632
     57 H27         1.5447   -6.5102   -7.9429 H         1 <0>         0.0763
     58 H28         2.5919   -5.0753   -7.8304 H         1 <0>         0.0663
     59 H29         0.7574   -6.5256   -4.2541 H         1 <0>         0.0795
     60 H30         0.3608   -7.3433   -5.7846 H         1 <0>         0.0747
     61 H31         2.0045   -7.4623   -5.1119 H         1 <0>         0.0782
@<TRIPOS>BOND
     1    1    2 1
     2    1   33 1
     3    1   34 1
     4    1   35 1
     5    2    3 1
     6    2   36 1
     7    2   37 1
     8    3    4 1
     9    3   38 1
    10    3   39 1
    11    4    5 1
    12    4   40 1
    13    4   41 1
    14    5    6 am
    15    5   42 1
    16    6    7 2
    17    6    8 1
    18    8    9 1
    19    8   10 1
    20    8   19 1
    21   10   15 ar
    22   10   11 ar
    23   11   12 ar
    24   11   18 1
    25   12   13 ar
    26   12   43 1
    27   13   14 ar
    28   13   17 1
    29   14   15 ar
    30   14   44 1
    31   15   16 1
    32   16   45 1
    33   17   46 1
    34   18   47 1
    35   19   20 am
    36   19   29 1
    37   20   21 2
    38   20   22 1
    39   22   23 1
    40   22   28 1
    41   22   24 1
    42   24   25 1
    43   24   48 1
    44   24   49 1
    45   25   26 1
    46   25   50 1
    47   25   51 1
    48   26   27 2
    49   26   28 am
    50   28   52 1
    51   29   30 1
    52   29   31 1
    53   29   32 1
    54   30   53 1
    55   30   54 1
    56   30   55 1
    57   31   56 1
    58   31   57 1
    59   31   58 1
    60   32   59 1
    61   32   60 1
    62   32   61 1
@<TRIPOS>MOLECULE
ZINC05942288
   46    49     0     0     0
SMALL
USER_CHARGES

@<TRIPOS>ATOM
      1 C1         -0.0167    1.3792    0.0096 C.ar      1 <0>        -0.1031
      2 C2          1.1684    2.0930    0.0021 C.ar      1 <0>        -0.1160
      3 C3          2.3774    1.4282   -0.0134 C.ar      1 <0>        -0.0966
      4 C4          2.4030    0.0334   -0.0211 C.ar      1 <0>        -0.0409
      5 C5          1.2046   -0.6805   -0.0130 C.ar      1 <0>        -0.0853
      6 C6          0.0021   -0.0041    0.0020 C.ar      1 <0>        -0.1163
      7 C7          3.6962   -0.6858   -0.0382 C.2       1 <0>         0.1785
      8 C8          4.0176   -1.7428   -0.8222 C.2       1 <0>        -0.2491
      9 C9          5.3409   -2.1223   -0.5234 C.2       1 <0>         0.2701
     10 N1          5.7969   -1.3259    0.4012 N.2       1 <0>        -0.2495
     11 N2          4.7908   -0.4039    0.7295 N.pl3     1 <0>        -0.4579
     12 H1          4.8596    0.3063    1.3866 H         1 <0>         0.4514
     13 O1          5.9508   -3.1642   -1.1513 O.3       1 <0>        -0.2107
     14 C10         5.1733   -3.9967   -1.8715 C.2       1 <0>         0.4416
     15 C11         3.8982   -3.7356   -2.2279 C.2       1 <0>        -0.2671
     16 C12         3.1876   -2.4582   -1.8570 C.3       1 <0>         0.1267
     17 H2          2.2054   -2.6898   -1.4451 H         1 <0>         0.0943
     18 C13         3.0357   -1.5878   -3.0779 C.ar      1 <0>        -0.1058
     19 C14         4.1556   -1.1832   -3.7806 C.ar      1 <0>        -0.0577
     20 C15         4.0192   -0.3850   -4.8998 C.ar      1 <0>        -0.1447
     21 C16         2.7570    0.0103   -5.3187 C.ar      1 <0>         0.1268
     22 C17         1.6349   -0.3973   -4.6121 C.ar      1 <0>        -0.2073
     23 C18         1.7764   -1.1999   -3.4966 C.ar      1 <0>        -0.0655
     24 O2          2.6202    0.7960   -6.4191 O.3       1 <0>        -0.2906
     25 C19         1.2908    1.1643   -6.7920 C.3       1 <0>         0.0400
     26 C20         1.3363    2.0290   -8.0254 C.2       1 <0>         0.5188
     27 O3          2.4023    2.3030   -8.5349 O.2       1 <0>        -0.5166
     28 N3          0.1925    2.4980   -8.5622 N.am      1 <0>        -0.8505
     29 C21         3.1877   -4.7158   -2.9928 C.1       1 <0>         0.2723
     30 N4          2.6242   -5.4933   -3.5997 N.1       1 <0>        -0.4422
     31 N5          5.7161   -5.1926   -2.2706 N.pl3     1 <0>        -0.8307
     32 H3         -0.9604    1.9041    0.0260 H         1 <0>         0.1263
     33 H4          1.1472    3.1727    0.0081 H         1 <0>         0.1279
     34 H5          3.3019    1.9865   -0.0199 H         1 <0>         0.1240
     35 H6          1.2179   -1.7604   -0.0192 H         1 <0>         0.1303
     36 H7         -0.9264   -0.5556    0.0082 H         1 <0>         0.1298
     37 H8          5.1379   -1.4912   -3.4541 H         1 <0>         0.1224
     38 H9          4.8943   -0.0686   -5.4480 H         1 <0>         0.1313
     39 H10         0.6513   -0.0909   -4.9362 H         1 <0>         0.1262
     40 H11         0.9029   -1.5211   -2.9487 H         1 <0>         0.1239
     41 H12         0.7095    0.2658   -6.9995 H         1 <0>         0.0945
     42 H13         0.8250    1.7182   -5.9769 H         1 <0>         0.0945
     43 H14        -0.6600    2.2789   -8.1547 H         1 <0>         0.4034
     44 H15         0.2218    3.0546   -9.3561 H         1 <0>         0.4099
     45 H16         6.6302   -5.4137   -2.0329 H         1 <0>         0.4123
     46 H17         5.1857   -5.8165   -2.7904 H         1 <0>         0.4269
@<TRIPOS>BOND
     1    1    6 ar
     2    1    2 ar
     3    1   32 1
     4    2    3 ar
     5    2   33 1
     6    3    4 ar
     7    3   34 1
     8    4    5 ar
     9    4    7 1
    10    5    6 ar
    11    5   35 1
    12    6   36 1
    13    7   11 1
    14    7    8 2
    15    8   16 1
    16    8    9 1
    17    9   10 2
    18    9   13 1
    19   10   11 1
    20   11   12 1
    21   13   14 1
    22   14   15 2
    23   14   31 1
    24   15   16 1
    25   15   29 1
    26   16   17 1
    27   16   18 1
    28   18   23 ar
    29   18   19 ar
    30   19   20 ar
    31   19   37 1
    32   20   21 ar
    33   20   38 1
    34   21   22 ar
    35   21   24 1
    36   22   23 ar
    37   22   39 1
    38   23   40 1
    39   24   25 1
    40   25   26 1
    41   25   41 1
    42   25   42 1
    43   26   27 2
    44   26   28 am
    45   28   43 1
    46   28   44 1
    47   29   30 3
    48   31   45 1
    49   31   46 1
@<TRIPOS>MOLECULE
ZINC05158570
   47    49     0     0     0
SMALL
USER_CHARGES

@<TRIPOS>ATOM
      1 C1          1.6612    1.5029    0.5997 C.3       1 <0>         0.0339
      2 O1          1.7771    0.0794    0.6469 O.3       1 <0>        -0.3496
      3 C2          0.6734   -0.6131    0.9903 C.2       1 <0>         0.5073
      4 O2         -0.3592   -0.0245    1.2427 O.2       1 <0>        -0.5004
      5 C3          0.7187   -2.0853    1.0598 C.ar      1 <0>        -0.1318
      6 C4          1.9073   -2.7642    0.7754 C.ar      1 <0>        -0.0435
      7 C5          1.9455   -4.1387    0.8419 C.ar      1 <0>        -0.1550
      8 C6          0.8039   -4.8518    1.1909 C.ar      1 <0>         0.1270
      9 C7         -0.3804   -4.1803    1.4745 C.ar      1 <0>        -0.1339
     10 C8         -0.4254   -2.8057    1.4159 C.ar      1 <0>        -0.0357
     11 O3          0.8454   -6.2062    1.2544 O.3       1 <0>        -0.2386
     12 C9          1.5637   -6.7773    2.2603 C.2       1 <0>        -0.0226
     13 C10         2.1580   -6.1238    3.2868 C.2       1 <0>        -0.0043
     14 N1          2.7708   -7.0501    4.0703 N.pl3     1 <0>        -0.4631
     15 H1          3.2755   -6.8685    4.8784 H         1 <0>         0.4493
     16 N2          2.5459   -8.3128    3.5073 N.2       1 <0>        -0.2370
     17 C11         1.8164   -8.1563    2.4225 C.2       1 <0>         0.1300
     18 C12         1.3454   -9.2396    1.5257 C.ar      1 <0>        -0.0858
     19 C13         0.5840   -8.9331    0.3999 C.ar      1 <0>        -0.0311
     20 C14         0.1476   -9.9423   -0.4328 C.ar      1 <0>        -0.2217
     21 C15         0.4650  -11.2650   -0.1526 C.ar      1 <0>         0.1578
     22 C16         1.2226  -11.5784    0.9661 C.ar      1 <0>        -0.1795
     23 C17         1.6692  -10.5711    1.8044 C.ar      1 <0>         0.1798
     24 O4          2.4158  -10.8760    2.8978 O.3       1 <0>        -0.4767
     25 O5          0.0318  -12.2549   -0.9765 O.3       1 <0>        -0.2850
     26 C18        -0.7442  -11.8621   -2.1103 C.3       1 <0>         0.0471
     27 C19        -1.1323  -13.0847   -2.9014 C.2       1 <0>         0.5150
     28 O6         -0.7790  -14.1841   -2.5308 O.2       1 <0>        -0.5001
     29 N3         -1.8718  -12.9563   -4.0208 N.am      1 <0>        -0.5757
     30 N4         -2.2236  -14.0645   -4.7379 N.3       1 <0>        -0.6001
     31 H2          1.3748    1.8770    1.5826 H         1 <0>         0.0629
     32 H3          2.6190    1.9361    0.3111 H         1 <0>         0.1056
     33 H4          0.9016    1.7816   -0.1307 H         1 <0>         0.0631
     34 H5          2.7942   -2.2111    0.5036 H         1 <0>         0.1462
     35 H6          2.8634   -4.6638    0.6224 H         1 <0>         0.1410
     36 H7         -1.2649   -4.7378    1.7451 H         1 <0>         0.1450
     37 H8         -1.3443   -2.2847    1.6406 H         1 <0>         0.1473
     38 H9          2.1470   -5.0567    3.4533 H         1 <0>         0.1799
     39 H10         0.3352   -7.9055    0.1796 H         1 <0>         0.1469
     40 H11        -0.4429   -9.7033   -1.3050 H         1 <0>         0.1354
     41 H12         1.4676  -12.6080    1.1810 H         1 <0>         0.1443
     42 H13         1.8952  -11.0427    3.6955 H         1 <0>         0.3950
     43 H14        -1.6437  -11.3464   -1.7740 H         1 <0>         0.0973
     44 H15        -0.1561  -11.1939   -2.7394 H         1 <0>         0.0999
     45 H16        -2.1544  -12.0770   -4.3172 H         1 <0>         0.4030
     46 H17        -2.7145  -14.7291   -4.1588 H         1 <0>         0.3498
     47 H18        -2.7735  -13.8130   -5.5456 H         1 <0>         0.3615
@<TRIPOS>BOND
     1    1    2 1
     2    1   31 1
     3    1   32 1
     4    1   33 1
     5    2    3 1
     6    3    4 2
     7    3    5 1
     8    5   10 ar
     9    5    6 ar
    10    6    7 ar
    11    6   34 1
    12    7    8 ar
    13    7   35 1
    14    8    9 ar
    15    8   11 1
    16    9   10 ar
    17    9   36 1
    18   10   37 1
    19   11   12 1
    20   12   17 1
    21   12   13 2
    22   13   14 1
    23   13   38 1
    24   14   15 1
    25   14   16 1
    26   16   17 2
    27   17   18 1
    28   18   23 ar
    29   18   19 ar
    30   19   20 ar
    31   19   39 1
    32   20   21 ar
    33   20   40 1
    34   21   22 ar
    35   21   25 1
    36   22   23 ar
    37   22   41 1
    38   23   24 1
    39   24   42 1
    40   25   26 1
    41   26   27 1
    42   26   43 1
    43   26   44 1
    44   27   28 2
    45   27   29 am
    46   29   30 1
    47   29   45 1
    48   30   46 1
    49   30   47 1
@<TRIPOS>MOLECULE
ZINC04098352
   52    54     0     0     0
SMALL
USER_CHARGES
methyl 7-hydroxy-9-(hydroxymethyl)-2-[3,4,5-trihydroxy-6-(hydroxymethyl)tetrahydropyran-2-yl]oxy-3-oxabicyclo[4.3.0]nona-4,8-diene-5-carboxylate
@<TRIPOS>ATOM
      1 C1         -2.3797    1.0767    0.0192 C.3       1 <0>         0.0343
      2 O1         -1.1920    1.8712    0.0179 O.3       1 <0>        -0.3454
      3 C2         -0.0144    1.2125    0.0087 C.2       1 <0>         0.5180
      4 O2          0.0021   -0.0041    0.0020 O.2       1 <0>        -0.5211
      5 C3          1.2017    1.9369    0.0010 C.2       1 <0>        -0.2692
      6 C4          2.3426    1.2435   -0.0136 C.2       1 <0>         0.1775
      7 O3          3.5360    1.8712   -0.0336 O.3       1 <0>        -0.3126
      8 C5          3.5412    3.1762   -0.6772 C.3       1 <0>         0.2492
      9 H1          4.5345    3.6180   -0.5977 H         1 <0>         0.1364
     10 C6          2.5240    4.0764    0.0150 C.3       1 <0>        -0.0671
     11 H2          2.4961    5.0501   -0.4742 H         1 <0>         0.1195
     12 C7          1.1274    3.4314    0.0036 C.3       1 <0>        -0.0127
     13 H3          0.5266    3.7969   -0.8292 H         1 <0>         0.1154
     14 C8          0.5752    3.8962    1.3801 C.3       1 <0>         0.1375
     15 H4         -0.0394    3.1148    1.8272 H         1 <0>         0.0690
     16 C9          1.8061    4.1449    2.2214 C.2       1 <0>        -0.1655
     17 C10         2.8734    4.2430    1.4740 C.2       1 <0>        -0.1198
     18 C11         4.2650    4.4885    1.9977 C.3       1 <0>         0.1224
     19 O4          4.2258    4.5954    3.4222 O.3       1 <0>        -0.5683
     20 O5         -0.1802    5.1003    1.2336 O.3       1 <0>        -0.5515
     21 O6          3.1915    3.0310   -2.0551 O.3       1 <0>        -0.3571
     22 C12         4.1414    2.2868   -2.8205 C.3       1 <0>         0.2229
     23 H5          4.3031    1.3151   -2.3538 H         1 <0>         0.0763
     24 C13         3.6084    2.0881   -4.2419 C.3       1 <0>         0.0600
     25 H6          3.4070    3.0590   -4.6944 H         1 <0>         0.0857
     26 C14         4.6574    1.3424   -5.0725 C.3       1 <0>         0.0851
     27 H7          4.8206    0.3513   -4.6492 H         1 <0>         0.0782
     28 C15         5.9685    2.1340   -5.0487 C.3       1 <0>         0.0904
     29 H8          5.8158    3.1059   -5.5179 H         1 <0>         0.0807
     30 C16         6.4103    2.3310   -3.5962 C.3       1 <0>         0.1115
     31 H9          6.6019    1.3599   -3.1397 H         1 <0>         0.0837
     32 O7          5.3772    3.0024   -2.8723 O.3       1 <0>        -0.3798
     33 C17         7.6878    3.1722   -3.5610 C.3       1 <0>         0.0901
     34 O8          8.1646    3.2584   -2.2167 O.3       1 <0>        -0.5673
     35 O9          6.9755    1.4117   -5.7603 O.3       1 <0>        -0.5497
     36 O10         4.1991    1.2171   -6.4202 O.3       1 <0>        -0.5548
     37 O11         2.4025    1.3227   -4.1970 O.3       1 <0>        -0.5528
     38 H10        -2.3918    0.4427    0.9058 H         1 <0>         0.0599
     39 H11        -3.2531    1.7288    0.0269 H         1 <0>         0.1024
     40 H12        -2.4003    0.4524   -0.8741 H         1 <0>         0.0606
     41 H13         2.3093    0.1640   -0.0098 H         1 <0>         0.1848
     42 H14         1.8038    4.2297    3.2981 H         1 <0>         0.1408
     43 H15         4.9119    3.6585    1.7133 H         1 <0>         0.0637
     44 H16         4.6545    5.4143    1.5744 H         1 <0>         0.0623
     45 H17         5.0888    4.7541    3.8286 H         1 <0>         0.3871
     46 H18        -0.5066    5.4638    2.0681 H         1 <0>         0.3820
     47 H19         8.4480    2.7048   -4.1869 H         1 <0>         0.0790
     48 H20         7.4741    4.1733   -3.9356 H         1 <0>         0.0577
     49 H21         8.9739    3.7785   -2.1190 H         1 <0>         0.3853
     50 H22         6.7593    1.2465   -6.6883 H         1 <0>         0.3957
     51 H23         3.3676    0.7315   -6.5094 H         1 <0>         0.3960
     52 H24         1.6946    1.7338   -3.6822 H         1 <0>         0.3937
@<TRIPOS>BOND
     1    1    2 1
     2    1   38 1
     3    1   39 1
     4    1   40 1
     5    2    3 1
     6    3    4 2
     7    3    5 1
     8    5   12 1
     9    5    6 2
    10    6    7 1
    11    6   41 1
    12    7    8 1
    13    8    9 1
    14    8   10 1
    15    8   21 1
    16   10   11 1
    17   10   17 1
    18   10   12 1
    19   12   13 1
    20   12   14 1
    21   14   15 1
    22   14   16 1
    23   14   20 1
    24   16   17 2
    25   16   42 1
    26   17   18 1
    27   18   19 1
    28   18   43 1
    29   18   44 1
    30   19   45 1
    31   20   46 1
    32   21   22 1
    33   22   23 1
    34   22   32 1
    35   22   24 1
    36   24   25 1
    37   24   26 1
    38   24   37 1
    39   26   27 1
    40   26   28 1
    41   26   36 1
    42   28   29 1
    43   28   30 1
    44   28   35 1
    45   30   31 1
    46   30   32 1
    47   30   33 1
    48   33   34 1
    49   33   47 1
    50   33   48 1
    51   34   49 1
    52   35   50 1
    53   36   51 1
    54   37   52 1
@<TRIPOS>MOLECULE
ZINC12867993
   79    82     0     0     0
SMALL
USER_CHARGES
(2R,3S,5S,9S,10R,13R,14S,17R)-2,3,5,14-tetrahydroxy-10,13-dimethyl-17-[(1R,2R)-1,2,5-trihydroxy-1,5-dimethyl-hexyl]-1,2,3,4,9,11,12,15,16,17-decahydrocyclopenta[a]phenanthren-6-one
@<TRIPOS>ATOM
      1 C1          1.7635   -0.5880   -3.4089 C.3       1 <0>        -0.1511
      2 C2          1.5897   -0.9414   -1.9305 C.3       1 <0>        -0.0394
      3 C3          0.5127   -0.0688   -1.3160 C.3       1 <0>        -0.0810
      4 C4          0.7651    1.3623   -1.8033 C.3       1 <0>        -0.1222
      5 C5          2.1894    1.8214   -1.7078 C.3       1 <0>        -0.0456
      6 H1          2.4306    2.2330   -2.6879 H         1 <0>         0.0698
      7 C6          3.2471    0.7879   -1.4380 C.2       1 <0>        -0.0512
      8 C7          4.5244    1.2268   -1.4252 C.2       1 <0>        -0.2195
      9 C8          4.6709    2.6724   -1.7053 C.2       1 <0>         0.3840
     10 O1          5.5228    3.0778   -2.4682 O.2       1 <0>        -0.4447
     11 C9          3.7326    3.6241   -1.0155 C.3       1 <0>         0.1190
     12 C10         2.3869    2.9976   -0.7447 C.3       1 <0>        -0.0182
     13 C11         2.2079    2.4959    0.6726 C.3       1 <0>        -0.0997
     14 C12         2.7606    3.4099    1.7362 C.3       1 <0>         0.0810
     15 H2          2.1314    4.2981    1.7939 H         1 <0>         0.0575
     16 C13         4.1856    3.8401    1.4686 C.3       1 <0>         0.0835
     17 H3          4.4685    4.5963    2.2009 H         1 <0>         0.0608
     18 C14         4.3700    4.4104    0.0818 C.3       1 <0>        -0.1270
     19 O2          5.0439    2.7077    1.6201 O.3       1 <0>        -0.5574
     20 O3          2.7138    2.7324    2.9935 O.3       1 <0>        -0.5586
     21 C15         1.2974    4.0305   -1.0398 C.3       1 <0>        -0.1320
     22 O4          3.4469    4.6002   -2.0193 O.3       1 <0>        -0.5556
     23 C16         2.8964   -0.6200   -1.1536 C.3       1 <0>         0.1485
     24 C17         3.8271   -1.7284   -1.6482 C.3       1 <0>        -0.1378
     25 C18         2.9040   -2.9799   -1.6571 C.3       1 <0>        -0.1164
     26 C19         1.4513   -2.4495   -1.7722 C.3       1 <0>        -0.0979
     27 H4          0.9587   -2.8779   -2.6451 H         1 <0>         0.0817
     28 C20         0.6632   -2.7801   -0.5032 C.3       1 <0>         0.1190
     29 C21         1.5495   -2.5491    0.7224 C.3       1 <0>        -0.1447
     30 C22         0.2213   -4.2444   -0.5442 C.3       1 <0>         0.0792
     31 H5          1.0994   -4.8873   -0.6044 H         1 <0>         0.0987
     32 C23        -0.5668   -4.5750    0.7248 C.3       1 <0>        -0.1445
     33 C24        -0.9014   -6.0679    0.7430 C.3       1 <0>        -0.1406
     34 C25        -1.6895   -6.3985    2.0120 C.3       1 <0>         0.1254
     35 C26        -2.9852   -5.5851    2.0341 C.3       1 <0>        -0.1414
     36 C27        -2.0241   -7.8913    2.0301 C.3       1 <0>        -0.1800
     37 O5         -0.9029   -6.0726    3.1597 O.3       1 <0>        -0.5592
     38 O6         -0.6065   -4.4602   -1.6888 O.3       1 <0>        -0.5577
     39 O7         -0.4880   -1.9372   -0.4242 O.3       1 <0>        -0.5412
     40 O8          2.6727   -0.7785    0.2489 O.3       1 <0>        -0.5067
     41 H6          2.0405    0.4622   -3.5014 H         1 <0>         0.0626
     42 H7          2.5473   -1.2099   -3.8414 H         1 <0>         0.0540
     43 H8          0.8267   -0.7646   -3.9373 H         1 <0>         0.0604
     44 H9          0.5773   -0.1084   -0.2287 H         1 <0>         0.0960
     45 H10        -0.4708   -0.4054   -1.6438 H         1 <0>         0.0683
     46 H11         0.4507    1.4314   -2.8447 H         1 <0>         0.0601
     47 H12         0.1454    2.0398   -1.2158 H         1 <0>         0.0718
     48 H13         5.3656    0.5791   -1.2271 H         1 <0>         0.1472
     49 H14         2.6997    1.5271    0.7604 H         1 <0>         0.0898
     50 H15         1.1428    2.3559    0.8572 H         1 <0>         0.0786
     51 H16         5.4386    4.4799   -0.1216 H         1 <0>         0.0842
     52 H17         3.9534    5.4175    0.0692 H         1 <0>         0.1017
     53 H18         4.9850    2.2826    2.4867 H         1 <0>         0.3812
     54 H19         3.0010    3.2727    3.7423 H         1 <0>         0.3781
     55 H20         1.2676    4.2312   -2.1108 H         1 <0>         0.0699
     56 H21         0.3317    3.6426   -0.7159 H         1 <0>         0.0610
     57 H22         1.5168    4.9535   -0.5032 H         1 <0>         0.0576
     58 H23         4.2269    5.0713   -2.3431 H         1 <0>         0.3784
     59 H24         4.6624   -1.8691   -0.9622 H         1 <0>         0.0717
     60 H25         4.1873   -1.5067   -2.6528 H         1 <0>         0.0749
     61 H26         3.0253   -3.5410   -0.7304 H         1 <0>         0.0796
     62 H27         3.1398   -3.6140   -2.5117 H         1 <0>         0.0632
     63 H28         1.4130   -1.5293    1.0824 H         1 <0>         0.1086
     64 H29         1.2732   -3.2519    1.5083 H         1 <0>         0.0423
     65 H30         2.5938   -2.7013    0.4495 H         1 <0>         0.0868
     66 H31         0.0332   -4.3264    1.6002 H         1 <0>         0.0846
     67 H32        -1.4899   -3.9955    0.7406 H         1 <0>         0.0734
     68 H33        -1.5013   -6.3164   -0.1324 H         1 <0>         0.0748
     69 H34         0.0217   -6.6473    0.7272 H         1 <0>         0.0604
     70 H35        -3.5852   -5.8337    1.1587 H         1 <0>         0.0679
     71 H36        -3.5467   -5.8207    2.9382 H         1 <0>         0.0602
     72 H37        -2.7469   -4.5216    2.0212 H         1 <0>         0.0665
     73 H38        -1.1010   -8.4708    2.0144 H         1 <0>         0.0570
     74 H39        -2.5856   -8.1269    2.9342 H         1 <0>         0.0632
     75 H40        -2.6241   -8.1399    1.1547 H         1 <0>         0.0652
     76 H41        -0.0649   -6.5523    3.2112 H         1 <0>         0.3737
     77 H42        -1.4082   -3.9197   -1.7019 H         1 <0>         0.3682
     78 H43        -1.0960   -2.0310   -1.1703 H         1 <0>         0.3624
     79 H44         3.4493   -0.5931    0.7944 H         1 <0>         0.3576
@<TRIPOS>BOND
     1    1    2 1
     2    1   41 1
     3    1   42 1
     4    1   43 1
     5    2   23 1
     6    2   26 1
     7    2    3 1
     8    3    4 1
     9    3   44 1
    10    3   45 1
    11    4    5 1
    12    4   46 1
    13    4   47 1
    14    5    6 1
    15    5   12 1
    16    5    7 1
    17    7    8 2
    18    7   23 1
    19    8    9 1
    20    8   48 1
    21    9   10 2
    22    9   11 1
    23   11   18 1
    24   11   12 1
    25   11   22 1
    26   12   13 1
    27   12   21 1
    28   13   14 1
    29   13   49 1
    30   13   50 1
    31   14   15 1
    32   14   16 1
    33   14   20 1
    34   16   17 1
    35   16   18 1
    36   16   19 1
    37   18   51 1
    38   18   52 1
    39   19   53 1
    40   20   54 1
    41   21   55 1
    42   21   56 1
    43   21   57 1
    44   22   58 1
    45   23   24 1
    46   23   40 1
    47   24   25 1
    48   24   59 1
    49   24   60 1
    50   25   26 1
    51   25   61 1
    52   25   62 1
    53   26   27 1
    54   26   28 1
    55   28   29 1
    56   28   30 1
    57   28   39 1
    58   29   63 1
    59   29   64 1
    60   29   65 1
    61   30   31 1
    62   30   32 1
    63   30   38 1
    64   32   33 1
    65   32   66 1
    66   32   67 1
    67   33   34 1
    68   33   68 1
    69   33   69 1
    70   34   35 1
    71   34   36 1
    72   34   37 1
    73   35   70 1
    74   35   71 1
    75   35   72 1
    76   36   73 1
    77   36   74 1
    78   36   75 1
    79   37   76 1
    80   38   77 1
    81   39   78 1
    82   40   79 1
@<TRIPOS>MOLECULE
ZINC31164863
   66    67     0     0     0
SMALL
USER_CHARGES
(2R,3S,4S,5R,6R)-2-[[(2S,3R,4R)-3,4-dihydroxy-4-(hydroxymethyl)tetrahydrofuran-2-yl]oxymethyl]-6-[(3R)-3-ethyl-4-hydroxy-4-methyl-pentoxy]tetrahydropyran-3,4,5-triol
@<TRIPOS>ATOM
      1 C1         -0.3910    1.0038   -2.6343 C.3       1 <0>        -0.1565
      2 C2         -0.6568    1.5065   -1.2138 C.3       1 <0>        -0.1217
      3 C3          0.2043    0.7186   -0.2246 C.3       1 <0>        -0.0678
      4 H1          0.0290   -0.3585   -0.3628 H         1 <0>         0.0766
      5 C4         -0.1679    1.1166    1.2051 C.3       1 <0>        -0.1157
      6 C5         -1.6087    0.6908    1.4943 C.3       1 <0>         0.0592
      7 O1         -1.9564    1.0625    2.8296 O.3       1 <0>        -0.3538
      8 C6         -3.2894    0.7083    3.2031 C.3       1 <0>         0.2711
      9 H2         -3.4258   -0.3585    2.9719 H         1 <0>         0.0637
     10 C7         -3.5106    1.0398    4.6813 C.3       1 <0>         0.1174
     11 H3         -3.2640    2.0894    4.8994 H         1 <0>         0.0801
     12 C8         -4.9589    0.7136    5.0585 C.3       1 <0>         0.1007
     13 H4         -5.1546   -0.3679    5.0128 H         1 <0>         0.0732
     14 C9         -5.9028    1.4955    4.1398 C.3       1 <0>         0.0641
     15 H5         -5.8328    2.5787    4.3179 H         1 <0>         0.0775
     16 C10        -5.5892    1.1464    2.6826 C.3       1 <0>         0.0768
     17 H6         -5.7051    0.0686    2.4957 H         1 <0>         0.0802
     18 O2         -4.2193    1.4453    2.4067 O.3       1 <0>        -0.3825
     19 C11        -6.4874    1.9686    1.7563 C.3       1 <0>         0.0649
     20 O3         -6.2766    1.5607    0.4030 O.3       1 <0>        -0.3384
     21 C12        -7.0719    2.2706   -0.5486 C.3       1 <0>         0.2448
     22 H7         -8.0831    2.2744   -0.1156 H         1 <0>         0.0840
     23 C13        -6.9389    1.6277   -1.9469 C.3       1 <0>         0.1158
     24 H8         -7.6858    0.8512   -2.1686 H         1 <0>         0.0861
     25 C14        -6.9510    2.8310   -2.9161 C.3       1 <0>         0.0865
     26 C15        -7.0899    4.0585   -1.9887 C.3       1 <0>         0.0334
     27 O4         -6.5781    3.6181   -0.7109 O.3       1 <0>        -0.3763
     28 C16        -8.1434    2.7387   -3.8704 C.3       1 <0>         0.0639
     29 O5         -8.1331    3.8606   -4.7554 O.3       1 <0>        -0.6009
     30 O6         -5.7270    2.8945   -3.6509 O.3       1 <0>        -0.5586
     31 O7         -5.7070    0.9113   -2.0535 O.3       1 <0>        -0.5538
     32 O8         -7.2561    1.1438    4.4345 O.3       1 <0>        -0.5904
     33 O9         -5.1950    1.0883    6.4171 O.3       1 <0>        -0.5917
     34 O10        -2.6211    0.2608    5.4837 O.3       1 <0>        -0.5787
     35 C17         1.6814    1.0311   -0.4728 C.3       1 <0>         0.1450
     36 C18         1.8982    2.5447   -0.4209 C.3       1 <0>        -0.1852
     37 C19         2.5333    0.3566    0.6044 C.3       1 <0>        -0.1847
     38 O11         2.0627    0.5391   -1.7591 O.3       1 <0>        -0.5761
     39 H9         -1.0101    1.5703   -3.3455 H         1 <0>         0.0411
     40 H10        -0.6437   -0.0649   -2.6983 H         1 <0>         0.0447
     41 H11         0.6719    1.1446   -2.8802 H         1 <0>         0.0869
     42 H12        -0.4041    2.5752   -1.1498 H         1 <0>         0.0631
     43 H13        -1.7197    1.3657   -0.9679 H         1 <0>         0.0638
     44 H14         0.5108    0.6183    1.9129 H         1 <0>         0.0769
     45 H15        -0.0783    2.2072    1.3172 H         1 <0>         0.0751
     46 H16        -2.2874    1.1891    0.7865 H         1 <0>         0.0703
     47 H17        -1.6983   -0.3998    1.3822 H         1 <0>         0.0486
     48 H18        -7.5408    1.8065    2.0283 H         1 <0>         0.0670
     49 H19        -6.2420    3.0359    1.8600 H         1 <0>         0.0724
     50 H20        -6.5023    4.8943   -2.3963 H         1 <0>         0.1051
     51 H21        -8.1482    4.3514   -1.9242 H         1 <0>         0.0706
     52 H22        -8.0739    1.8096   -4.4552 H         1 <0>         0.0545
     53 H23        -9.0781    2.7378   -3.2904 H         1 <0>         0.0526
     54 H24        -8.9190    3.9671   -5.5177 H         1 <0>         0.4191
     55 H25        -5.5692    3.6952   -4.3884 H         1 <0>         0.4167
     56 H26        -5.4525    0.3909   -2.9886 H         1 <0>         0.4111
     57 H27        -8.0799    1.6075    3.8720 H         1 <0>         0.4126
     58 H28        -6.1858    0.9286    6.8675 H         1 <0>         0.4229
     59 H29        -2.6350    0.3640    6.5788 H         1 <0>         0.4207
     60 H30         2.9601    2.7693   -0.5993 H         1 <0>         0.0549
     61 H31         1.6047    2.9234    0.5693 H         1 <0>         0.0656
     62 H32         1.2857    3.0296   -1.1953 H         1 <0>         0.0690
     63 H33         3.5952    0.5812    0.4260 H         1 <0>         0.0563
     64 H34         2.3774   -0.7317    0.5671 H         1 <0>         0.0619
     65 H35         2.2397    0.7353    1.5945 H         1 <0>         0.0691
     66 H36         3.0950    0.6720   -2.1149 H         1 <0>         0.3954
@<TRIPOS>BOND
     1    1    2 1
     2    1   39 1
     3    1   40 1
     4    1   41 1
     5    2    3 1
     6    2   42 1
     7    2   43 1
     8    3    4 1
     9    3    5 1
    10    3   35 1
    11    5    6 1
    12    5   44 1
    13    5   45 1
    14    6    7 1
    15    6   46 1
    16    6   47 1
    17    7    8 1
    18    8    9 1
    19    8   18 1
    20    8   10 1
    21   10   11 1
    22   10   12 1
    23   10   34 1
    24   12   13 1
    25   12   14 1
    26   12   33 1
    27   14   15 1
    28   14   16 1
    29   14   32 1
    30   16   17 1
    31   16   18 1
    32   16   19 1
    33   19   20 1
    34   19   48 1
    35   19   49 1
    36   20   21 1
    37   21   22 1
    38   21   27 1
    39   21   23 1
    40   23   24 1
    41   23   25 1
    42   23   31 1
    43   25   26 1
    44   25   28 1
    45   25   30 1
    46   26   27 1
    47   26   50 1
    48   26   51 1
    49   28   29 1
    50   28   52 1
    51   28   53 1
    52   29   54 1
    53   30   55 1
    54   31   56 1
    55   32   57 1
    56   33   58 1
    57   34   59 1
    58   35   36 1
    59   35   37 1
    60   35   38 1
    61   36   60 1
    62   36   61 1
    63   36   62 1
    64   37   63 1
    65   37   64 1
    66   37   65 1
    67   38   66 1
@<TRIPOS>MOLECULE
ZINC35455065
   57    60     0     0     0
SMALL
USER_CHARGES

@<TRIPOS>ATOM
      1 C1         -0.7178   -2.0005    2.8010 C.3       1 <0>        -0.1442
      2 C2         -0.3040   -1.5663    1.4185 C.2       1 <0>         0.4622
      3 O1         -0.3521   -2.3493    0.4996 O.2       1 <0>        -0.4940
      4 O2          0.1181   -0.3096    1.2080 O.3       1 <0>        -0.3340
      5 C3          0.4946    0.0332   -0.1272 C.3       1 <0>         0.0852
      6 H1         -0.0865   -0.5600   -0.8332 H         1 <0>         0.1176
      7 C4          0.2276    1.5222   -0.3681 C.3       1 <0>         0.1242
      8 H2          0.7689    2.1138    0.3701 H         1 <0>         0.0869
      9 C5          0.7067    1.8945   -1.7746 C.3       1 <0>         0.0480
     10 H3          0.5712    2.9642   -1.9342 H         1 <0>         0.0848
     11 C6          2.1901    1.5410   -1.9101 C.3       1 <0>         0.0644
     12 H4          2.7701    2.1269   -1.1971 H         1 <0>         0.0805
     13 O3          2.3729    0.1490   -1.6434 O.3       1 <0>        -0.3665
     14 C7          1.9858   -0.2499   -0.3269 C.3       1 <0>         0.2424
     15 H5          2.5639    0.3118    0.4068 H         1 <0>         0.0760
     16 O4          2.2322   -1.6475   -0.1592 O.3       1 <0>        -0.2528
     17 C8          3.5329   -2.0417   -0.0894 C.2       1 <0>        -0.0930
     18 C9          4.3418   -1.6475    1.0078 C.2       1 <0>         0.4102
     19 O5          3.8961   -0.9524    1.9068 O.2       1 <0>        -0.4443
     20 C10         5.7388   -2.1098    1.0197 C.ar      1 <0>        -0.2612
     21 C11         6.6083   -1.7685    2.0642 C.ar      1 <0>         0.2214
     22 C12         7.9134   -2.2227    2.0395 C.ar      1 <0>        -0.2045
     23 C13         8.3587   -3.0122    0.9843 C.ar      1 <0>         0.1948
     24 C14         7.5047   -3.3533   -0.0524 C.ar      1 <0>        -0.1809
     25 C15         6.1913   -2.9082   -0.0452 C.ar      1 <0>         0.1810
     26 O6          5.3472   -3.2329   -1.0468 O.3       1 <0>        -0.2030
     27 C16         4.0675   -2.8227   -1.0696 C.2       1 <0>         0.2063
     28 C17         3.2120   -3.2282   -2.2000 C.ar      1 <0>        -0.0777
     29 C18         3.6791   -3.1058   -3.5119 C.ar      1 <0>        -0.0540
     30 C19         2.8766   -3.4864   -4.5647 C.ar      1 <0>        -0.1548
     31 C20         1.6044   -3.9908   -4.3244 C.ar      1 <0>         0.1346
     32 C21         1.1359   -4.1143   -3.0221 C.ar      1 <0>        -0.1467
     33 C22         1.9336   -3.7416   -1.9627 C.ar      1 <0>        -0.0312
     34 O7          0.8163   -4.3639   -5.3655 O.3       1 <0>        -0.4976
     35 O8          9.6429   -3.4525    0.9698 O.3       1 <0>        -0.4867
     36 O9          6.1721   -0.9974    3.0924 O.3       1 <0>        -0.4719
     37 C23         2.6615    1.8546   -3.3315 C.3       1 <0>         0.0833
     38 O10         4.0704    1.6349   -3.4254 O.3       1 <0>        -0.5596
     39 O11        -0.0494    1.1673   -2.7448 O.3       1 <0>        -0.5358
     40 O12        -1.1732    1.7811   -0.2543 O.3       1 <0>        -0.5378
     41 H6          0.1480   -2.3964    3.3319 H         1 <0>         0.1036
     42 H7         -1.1183   -1.1455    3.3457 H         1 <0>         0.0929
     43 H8         -1.4823   -2.7737    2.7254 H         1 <0>         0.1028
     44 H9          8.5892   -1.9637    2.8411 H         1 <0>         0.1512
     45 H10         7.8621   -3.9666   -0.8664 H         1 <0>         0.1551
     46 H11         4.6675   -2.7132   -3.6996 H         1 <0>         0.1323
     47 H12         3.2366   -3.3922   -5.5786 H         1 <0>         0.1349
     48 H13         0.1464   -4.5069   -2.8399 H         1 <0>         0.1370
     49 H14         1.5704   -3.8421   -0.9506 H         1 <0>         0.1404
     50 H15         0.9201   -5.2895   -5.6253 H         1 <0>         0.3947
     51 H16         9.7709   -4.3061    1.4058 H         1 <0>         0.4042
     52 H17         5.8013   -1.4996    3.8309 H         1 <0>         0.4031
     53 H18         2.1446    1.2047   -4.0375 H         1 <0>         0.0611
     54 H19         2.4397    2.8956   -3.5664 H         1 <0>         0.0670
     55 H20         4.4390    1.8145   -4.3012 H         1 <0>         0.3842
     56 H21         0.2014    1.3543   -3.6598 H         1 <0>         0.3788
     57 H22        -1.4148    2.7067   -0.3953 H         1 <0>         0.3847
@<TRIPOS>BOND
     1    1    2 1
     2    1   41 1
     3    1   42 1
     4    1   43 1
     5    2    3 2
     6    2    4 1
     7    4    5 1
     8    5    6 1
     9    5   14 1
    10    5    7 1
    11    7    8 1
    12    7    9 1
    13    7   40 1
    14    9   10 1
    15    9   11 1
    16    9   39 1
    17   11   12 1
    18   11   13 1
    19   11   37 1
    20   13   14 1
    21   14   15 1
    22   14   16 1
    23   16   17 1
    24   17   27 2
    25   17   18 1
    26   18   19 2
    27   18   20 1
    28   20   25 ar
    29   20   21 ar
    30   21   22 ar
    31   21   36 1
    32   22   23 ar
    33   22   44 1
    34   23   24 ar
    35   23   35 1
    36   24   25 ar
    37   24   45 1
    38   25   26 1
    39   26   27 1
    40   27   28 1
    41   28   33 ar
    42   28   29 ar
    43   29   30 ar
    44   29   46 1
    45   30   31 ar
    46   30   47 1
    47   31   32 ar
    48   31   34 1
    49   32   33 ar
    50   32   48 1
    51   33   49 1
    52   34   50 1
    53   35   51 1
    54   36   52 1
    55   37   38 1
    56   37   53 1
    57   37   54 1
    58   38   55 1
    59   39   56 1
    60   40   57 1
@<TRIPOS>MOLECULE
ZINC43742902
   79    82     0     0     0
SMALL
USER_CHARGES

@<TRIPOS>ATOM
      1 C1          0.0573    2.8889    0.9968 C.3       1 <0>        -0.2042
      2 C2          0.5864    1.4596    1.1307 C.3       1 <0>        -0.0308
      3 C3          1.3673    1.0921   -0.1103 C.3       1 <0>        -0.1130
      4 C4          2.3610    2.2336   -0.3780 C.3       1 <0>        -0.1178
      5 C5          3.3012    2.4685    0.8034 C.3       1 <0>        -0.0514
      6 H1          3.9909    1.6252    0.8391 H         1 <0>         0.0930
      7 C6          2.5625    2.4987    2.1143 C.2       1 <0>        -0.0376
      8 C7          2.7653    3.4103    3.0586 C.2       1 <0>        -0.2315
      9 C8          3.7662    4.4644    2.8578 C.2       1 <0>         0.3643
     10 O1          3.7403    5.4967    3.4948 O.2       1 <0>        -0.4386
     11 C9          4.8330    4.1996    1.8164 C.3       1 <0>         0.1143
     12 C10         4.1289    3.7167    0.5533 C.3       1 <0>        -0.0273
     13 C11         5.1822    3.4356   -0.5222 C.3       1 <0>        -0.0939
     14 C12         6.1430    2.3555   -0.0202 C.3       1 <0>         0.0694
     15 H2          5.5852    1.4431    0.1906 H         1 <0>         0.0632
     16 C13         6.8333    2.8375    1.2571 C.3       1 <0>         0.0849
     17 H3          7.5151    2.0659    1.6146 H         1 <0>         0.0567
     18 C14         5.7829    3.1161    2.3300 C.3       1 <0>        -0.1357
     19 O2          7.5683    4.0311    0.9797 O.3       1 <0>        -0.5387
     20 O3          7.1271    2.0911   -1.0220 O.3       1 <0>        -0.5607
     21 C15         3.2076    4.8243    0.0382 C.3       1 <0>        -0.1520
     22 O4          5.5642    5.3999    1.5579 O.3       1 <0>        -0.5141
     23 C16         1.5694    1.3819    2.3328 C.3       1 <0>         0.1524
     24 C17         0.6071    1.5264    3.5143 C.3       1 <0>        -0.1300
     25 C18        -0.5879    0.6237    3.0965 C.3       1 <0>        -0.1370
     26 C19        -0.5472    0.5358    1.5485 C.3       1 <0>        -0.0886
     27 H4         -0.3387   -0.4863    1.2326 H         1 <0>         0.0793
     28 C20        -1.8720    1.0175    0.9538 C.3       1 <0>         0.1182
     29 C21        -1.7660    1.0448   -0.5723 C.3       1 <0>        -0.1522
     30 C22        -2.1806    2.4247    1.4688 C.3       1 <0>         0.0219
     31 H5         -1.5761    3.1511    0.9257 H         1 <0>         0.1553
     32 C23        -3.6637    2.7328    1.2536 C.3       1 <0>        -0.1460
     33 C24        -3.9467    4.1824    1.6529 C.3       1 <0>        -0.1419
     34 C25        -5.4299    4.4904    1.4377 C.3       1 <0>         0.1260
     35 C26        -5.6889    5.9721    1.7177 C.3       1 <0>        -0.1805
     36 C27        -5.8126    4.1702   -0.0087 C.3       1 <0>        -0.1439
     37 O5         -6.2157    3.6933    2.3259 O.3       1 <0>        -0.5589
     38 O6         -1.8761    2.4991    2.8630 O.3       1 <0>        -0.5393
     39 O7         -2.9202    0.1275    1.3426 O.3       1 <0>        -0.5526
     40 O8          2.2399    0.1203    2.3636 O.3       1 <0>        -0.5368
     41 H6          0.8954    3.5852    0.9661 H         1 <0>         0.0586
     42 H7         -0.5222    2.9773    0.0779 H         1 <0>         0.0728
     43 H8         -0.5781    3.1227    1.8510 H         1 <0>         0.1202
     44 H9          1.9082    0.1602    0.0541 H         1 <0>         0.0793
     45 H10         0.6892    0.9842   -0.9569 H         1 <0>         0.0730
     46 H11         2.9542    1.9871   -1.2587 H         1 <0>         0.0714
     47 H12         1.8035    3.1495   -0.5741 H         1 <0>         0.0779
     48 H13         2.1934    3.3760    3.9741 H         1 <0>         0.1400
     49 H14         4.6904    3.0908   -1.4317 H         1 <0>         0.0748
     50 H15         5.7393    4.3485   -0.7331 H         1 <0>         0.0936
     51 H16         6.2762    3.4651    3.2372 H         1 <0>         0.0817
     52 H17         5.2173    2.2103    2.5485 H         1 <0>         0.0913
     53 H18         8.2550    3.9229    0.3075 H         1 <0>         0.3781
     54 H19         7.7713    1.4147   -0.7716 H         1 <0>         0.3784
     55 H20         2.3660    4.9436    0.7206 H         1 <0>         0.0553
     56 H21         3.7628    5.7605   -0.0210 H         1 <0>         0.0732
     57 H22         2.8376    4.5581   -0.9519 H         1 <0>         0.0681
     58 H23         6.0112    5.7631    2.3347 H         1 <0>         0.3824
     59 H24         1.0654    1.1598    4.4328 H         1 <0>         0.0618
     60 H25         0.2875    2.5623    3.6276 H         1 <0>         0.0913
     61 H26        -0.4763   -0.3698    3.5309 H         1 <0>         0.0470
     62 H27        -1.5269    1.0716    3.4215 H         1 <0>         0.1134
     63 H28        -1.5698    0.0380   -0.9410 H         1 <0>         0.0662
     64 H29        -2.7017    1.4106   -0.9950 H         1 <0>         0.0632
     65 H30        -0.9508    1.7052   -0.8681 H         1 <0>         0.0807
     66 H31        -3.9158    2.5895    0.2028 H         1 <0>         0.0774
     67 H32        -4.2667    2.0627    1.8665 H         1 <0>         0.0739
     68 H33        -3.6947    4.3256    2.7037 H         1 <0>         0.0687
     69 H34        -3.3438    4.8524    1.0400 H         1 <0>         0.0692
     70 H35        -5.0895    6.5801    1.0402 H         1 <0>         0.0653
     71 H36        -6.7455    6.1915    1.5644 H         1 <0>         0.0636
     72 H37        -5.4163    6.2002    2.7481 H         1 <0>         0.0576
     73 H38        -5.6280    3.1147   -0.2082 H         1 <0>         0.0670
     74 H39        -6.8692    4.3897   -0.1620 H         1 <0>         0.0610
     75 H40        -5.2131    4.7783   -0.6862 H         1 <0>         0.0684
     76 H41        -6.0259    3.8442    3.2620 H         1 <0>         0.3735
     77 H42        -2.5533    2.1123    3.4347 H         1 <0>         0.3709
     78 H43        -3.0446    0.0603    2.2992 H         1 <0>         0.3703
     79 H44         2.8639    0.0243    3.0961 H         1 <0>         0.3756
@<TRIPOS>BOND
     1    1    2 1
     2    1   41 1
     3    1   42 1
     4    1   43 1
     5    2   23 1
     6    2   26 1
     7    2    3 1
     8    3    4 1
     9    3   44 1
    10    3   45 1
    11    4    5 1
    12    4   46 1
    13    4   47 1
    14    5    6 1
    15    5   12 1
    16    5    7 1
    17    7    8 2
    18    7   23 1
    19    8    9 1
    20    8   48 1
    21    9   10 2
    22    9   11 1
    23   11   18 1
    24   11   12 1
    25   11   22 1
    26   12   13 1
    27   12   21 1
    28   13   14 1
    29   13   49 1
    30   13   50 1
    31   14   15 1
    32   14   16 1
    33   14   20 1
    34   16   17 1
    35   16   18 1
    36   16   19 1
    37   18   51 1
    38   18   52 1
    39   19   53 1
    40   20   54 1
    41   21   55 1
    42   21   56 1
    43   21   57 1
    44   22   58 1
    45   23   24 1
    46   23   40 1
    47   24   25 1
    48   24   59 1
    49   24   60 1
    50   25   26 1
    51   25   61 1
    52   25   62 1
    53   26   27 1
    54   26   28 1
    55   28   29 1
    56   28   30 1
    57   28   39 1
    58   29   63 1
    59   29   64 1
    60   29   65 1
    61   30   31 1
    62   30   32 1
    63   30   38 1
    64   32   33 1
    65   32   66 1
    66   32   67 1
    67   33   34 1
    68   33   68 1
    69   33   69 1
    70   34   35 1
    71   34   36 1
    72   34   37 1
    73   35   70 1
    74   35   71 1
    75   35   72 1
    76   36   73 1
    77   36   74 1
    78   36   75 1
    79   37   76 1
    80   38   77 1
    81   39   78 1
    82   40   79 1
@<TRIPOS>MOLECULE
ZINC05393758
   36    37     0     0     0
SMALL
USER_CHARGES
4-[N-[(3-bromo-4-dimethylamino-phenyl)methyleneamino]carbamimidoyl]-1,2,5-oxadiazol-3-amine
@<TRIPOS>ATOM
      1 C1          6.1031    1.7586   -0.9402 C.3       1 <0>         0.0252
      2 N1          5.4214    1.1922    0.2313 N.pl3     1 <0>        -0.5143
      3 C2          6.0293    1.6746    1.4785 C.3       1 <0>         0.0262
      4 C3          4.0549    1.4739    0.1994 C.ar      1 <0>         0.1667
      5 C4          3.6189    2.7945    0.1898 C.ar      1 <0>        -0.1531
      6 C5          2.2710    3.0766    0.1589 C.ar      1 <0>        -0.0391
      7 C6          1.3405    2.0338    0.1355 C.ar      1 <0>        -0.1008
      8 C7          1.7816    0.7078    0.1447 C.ar      1 <0>        -0.0319
      9 C8          3.1320    0.4329    0.1766 C.ar      1 <0>        -0.0831
     10 Br1         3.7309   -1.3607    0.1891 Br        1 <0>        -0.0031
     11 C9         -0.1025    2.3320    0.0952 C.2       1 <0>         0.2263
     12 N2         -0.5107    3.5644    0.0868 N.2       1 <0>        -0.3089
     13 N3         -1.8821    3.8479    0.0484 N.pl3     1 <0>        -0.5287
     14 C10        -2.3151    5.1555    0.0395 C.cat     1 <0>         0.6674
     15 C11        -3.7577    5.4573   -0.1163 C.2       1 <0>        -0.1031
     16 C12        -4.9013    4.5176   -0.1631 C.2       1 <0>         0.3325
     17 N4         -5.9268    5.3237   -0.3124 N.2       1 <0>        -0.3691
     18 O1         -5.5379    6.4671   -0.3502 O.3       1 <0>         0.4117
     19 N5         -4.3448    6.6272   -0.2422 N.2       1 <0>        -0.2667
     20 N6         -4.8916    3.1321   -0.0713 N.pl3     1 <0>        -0.7973
     21 H1          5.9695    2.8404   -0.9507 H         1 <0>         0.0358
     22 H2          7.1664    1.5244   -0.8902 H         1 <0>         0.0859
     23 H3          5.6793    1.3314   -1.8491 H         1 <0>         0.0750
     24 H4          5.5519    1.1863    2.3280 H         1 <0>         0.0751
     25 H5          7.0943    1.4422    1.4772 H         1 <0>         0.0860
     26 H6          5.8930    2.7532    1.5557 H         1 <0>         0.0357
     27 H7          4.3382    3.6000    0.2068 H         1 <0>         0.1415
     28 H8          1.9334    4.1025    0.1515 H         1 <0>         0.1384
     29 H9          1.0656   -0.1005    0.1270 H         1 <0>         0.1501
     30 H10        -0.8202    1.5254    0.0727 H         1 <0>         0.1484
     31 H11        -2.5268    3.1234    0.0283 H         1 <0>         0.4073
     32 H12        -1.6697    7.0758    0.2426 H         1 <0>         0.4635
     33 H13        -4.0482    2.6541   -0.0381 H         1 <0>         0.4100
     34 H14        -5.7282    2.6422   -0.0403 H         1 <0>         0.4387
     35 N7         -1.3926    6.0968    0.1684 N.pl3     1 <0>        -0.7144
     36 H15        -0.3985    5.8413    0.1938 H         1 <0>         0.4663
@<TRIPOS>BOND
     1    1    2 1
     2    1   21 1
     3    1   22 1
     4    1   23 1
     5    2    3 1
     6    2    4 1
     7    3   24 1
     8    3   25 1
     9    3   26 1
    10    4    9 ar
    11    4    5 ar
    12    5    6 ar
    13    5   27 1
    14    6    7 ar
    15    6   28 1
    16    7    8 ar
    17    7   11 1
    18    8    9 ar
    19    8   29 1
    20    9   10 1
    21   11   12 2
    22   11   30 1
    23   12   13 1
    24   13   14 1
    25   13   31 1
    26   14   15 1
    27   14   35 2
    28   15   19 2
    29   15   16 1
    30   16   17 2
    31   16   20 1
    32   17   18 1
    33   18   19 1
    34   20   33 1
    35   20   34 1
    36   32   35 1
    37   35   36 1
@<TRIPOS>MOLECULE
ZINC40734794
   55    58     0     0     0
SMALL
USER_CHARGES

@<TRIPOS>ATOM
      1 C1         -1.1838    2.2752   -2.0254 C.3       1 <0>        -0.1353
      2 C2         -1.3080    0.7896   -1.6538 C.3       1 <0>        -0.0652
      3 C3         -2.6083    0.1481   -2.2112 C.3       1 <0>        -0.1264
      4 C4         -2.2161   -1.3481   -2.1231 C.3       1 <0>         0.1375
      5 H1         -2.8513   -1.9713   -2.7658 H         1 <0>         0.1116
      6 C5         -2.3087   -1.7546   -0.6543 C.3       1 <0>        -0.1204
      7 C6         -1.4812   -0.8887    0.2780 C.3       1 <0>        -0.0561
      8 C7         -1.2984    0.5570   -0.1440 C.3       1 <0>        -0.1057
      9 C8         -0.1126   -1.5443    0.5162 C.3       1 <0>        -0.1420
     10 C9         -2.2036   -0.8764    1.6484 C.3       1 <0>        -0.1501
     11 N1         -0.8039   -1.3966   -2.5507 N.pl3     1 <0>        -0.5444
     12 C10        -0.2074   -0.0737   -2.3099 C.3       1 <0>         0.1020
     13 C11        -0.1519   -2.4961   -3.0962 C.ar      1 <0>         0.4840
     14 C12         1.1522   -2.3784   -3.5806 C.ar      1 <0>         0.0156
     15 C13         1.7607   -3.5139   -4.1177 C.ar      1 <0>         0.4195
     16 N2          1.0798   -4.6572   -4.1476 N.ar      1 <0>        -0.5592
     17 C14        -0.1500   -4.7254   -3.6796 C.ar      1 <0>         0.4074
     18 N3         -0.7589   -3.6786   -3.1598 N.ar      1 <0>        -0.5170
     19 N4          3.0573   -3.4516   -4.6142 N.pl3     1 <0>        -0.4840
     20 N5          3.6577   -4.5979   -5.1510 N.pl3     1 <0>        -0.5564
     21 C15         4.9608   -4.5353   -5.6499 C.ar      1 <0>         0.1911
     22 C16         5.6650   -3.3386   -5.6093 C.ar      1 <0>        -0.1863
     23 C17         6.9534   -3.2803   -6.1031 C.ar      1 <0>        -0.0676
     24 C18         7.5426   -4.4115   -6.6374 C.ar      1 <0>        -0.1493
     25 C19         6.8443   -5.6044   -6.6797 C.ar      1 <0>        -0.0647
     26 C20         5.5576   -5.6710   -6.1824 C.ar      1 <0>        -0.1688
     27 N6          1.8330   -1.1509   -3.5292 N.pl3     1 <0>        -0.8772
     28 H2         -0.2473    2.6710   -1.6325 H         1 <0>         0.0654
     29 H3         -1.1962    2.3807   -3.1102 H         1 <0>         0.0649
     30 H4         -2.0200    2.8279   -1.5971 H         1 <0>         0.0730
     31 H5         -3.4650    0.3735   -1.5765 H         1 <0>         0.1013
     32 H6         -2.7908    0.4525   -3.2412 H         1 <0>         0.0831
     33 H7         -3.3621   -1.7129   -0.3383 H         1 <0>         0.0842
     34 H8         -1.9901   -2.8016   -0.5492 H         1 <0>         0.0719
     35 H9         -0.3476    0.9310    0.2674 H         1 <0>         0.0692
     36 H10        -2.0945    1.1651    0.3143 H         1 <0>         0.0758
     37 H11         0.4092   -1.6519   -0.4347 H         1 <0>         0.0419
     38 H12         0.4780   -0.9193    1.1860 H         1 <0>         0.0590
     39 H13        -0.2538   -2.5269    0.9664 H         1 <0>         0.0563
     40 H14        -2.2744   -1.8947    2.0309 H         1 <0>         0.0572
     41 H15        -1.6397   -0.2628    2.3509 H         1 <0>         0.0586
     42 H16        -3.2050   -0.4633    1.5275 H         1 <0>         0.0591
     43 H17         0.0857    0.3711   -3.2658 H         1 <0>         0.0896
     44 H18         0.6630   -0.1496   -1.6664 H         1 <0>         0.0854
     45 H19        -0.6737   -5.6690   -3.7198 H         1 <0>         0.2447
     46 H20         3.5466   -2.6144   -4.5890 H         1 <0>         0.4519
     47 H21         3.1684   -5.4351   -5.1761 H         1 <0>         0.4231
     48 H22         5.2052   -2.4547   -5.1925 H         1 <0>         0.1127
     49 H23         7.5013   -2.3501   -6.0722 H         1 <0>         0.1320
     50 H24         8.5504   -4.3632   -7.0228 H         1 <0>         0.1314
     51 H25         7.3073   -6.4859   -7.0979 H         1 <0>         0.1356
     52 H26         5.0144   -6.6040   -6.2117 H         1 <0>         0.1297
     53 H27         1.7113   -0.5603   -2.7694 H         1 <0>         0.4128
     54 H28         2.4248   -0.8938   -4.2535 H         1 <0>         0.4004
     55 H29         1.4946   -5.4512   -4.5194 H         1 <0>         0.4368
@<TRIPOS>BOND
     1    1    2 1
     2    1   28 1
     3    1   29 1
     4    1   30 1
     5    2    8 1
     6    2   12 1
     7    2    3 1
     8    3    4 1
     9    3   31 1
    10    3   32 1
    11    4    5 1
    12    4    6 1
    13    4   11 1
    14    6    7 1
    15    6   33 1
    16    6   34 1
    17    7    8 1
    18    7    9 1
    19    7   10 1
    20    8   35 1
    21    8   36 1
    22    9   37 1
    23    9   38 1
    24    9   39 1
    25   10   40 1
    26   10   41 1
    27   10   42 1
    28   11   12 1
    29   11   13 1
    30   12   43 1
    31   12   44 1
    32   13   18 ar
    33   13   14 ar
    34   14   15 ar
    35   14   27 1
    36   15   16 ar
    37   15   19 1
    38   16   17 ar
    39   16   55 1
    40   17   18 ar
    41   17   45 1
    42   19   20 1
    43   19   46 1
    44   20   21 1
    45   20   47 1
    46   21   26 ar
    47   21   22 ar
    48   22   23 ar
    49   22   48 1
    50   23   24 ar
    51   23   49 1
    52   24   25 ar
    53   24   50 1
    54   25   26 ar
    55   25   51 1
    56   26   52 1
    57   27   53 1
    58   27   54 1
@<TRIPOS>MOLECULE
ZINC45695628
   49    51     0     0     0
SMALL
USER_CHARGES

@<TRIPOS>ATOM
      1 C1          0.1537    1.3723    0.6419 C.ar      1 <0>        -0.0999
      2 C2          1.1725    2.0900    0.0424 C.ar      1 <0>        -0.1128
      3 C3          2.2149    1.4297   -0.5802 C.ar      1 <0>        -0.1133
      4 C4          2.2410    0.0424   -0.6049 C.ar      1 <0>        -0.1318
      5 C5          1.2131   -0.6811    0.0001 C.ar      1 <0>         0.1811
      6 C6          0.1717   -0.0101    0.6222 C.ar      1 <0>        -0.1119
      7 N1          1.2330   -2.0827   -0.0214 N.am      1 <0>        -0.6733
      8 C7          0.0816   -2.7747    0.0876 C.2       1 <0>         0.7101
      9 O1         -0.9824   -2.1863    0.1015 O.2       1 <0>        -0.5642
     10 N2          0.1095   -4.1190    0.1812 N.am      1 <0>        -0.7399
     11 C8         -1.1420   -4.8711    0.2997 C.3       1 <0>         0.1559
     12 C9         -1.7142   -5.1363   -1.0959 C.3       1 <0>        -0.1629
     13 C10        -2.9780   -5.9898   -0.9693 C.3       1 <0>        -0.0007
     14 N3         -2.6482   -7.2660   -0.3234 N.4       1 <0>        -0.3569
     15 C11        -2.1663   -7.0235    1.0417 C.3       1 <0>         0.0053
     16 C12        -0.8714   -6.2098    0.9925 C.3       1 <0>        -0.1572
     17 C13        -3.8477   -8.1126   -0.2745 C.3       1 <0>        -0.0833
     18 C14        -3.7265   -9.5410   -0.8093 C.3       1 <0>        -0.1528
     19 C15        -4.5014   -8.4891   -1.6056 C.3       1 <0>        -0.1551
     20 S1          3.5682   -0.8025   -1.3983 S.3       1 <0>        -0.0469
     21 C16         4.6289    0.5316   -2.0192 C.3       1 <0>        -0.1486
     22 C17         5.8184   -0.0616   -2.7293 C.2       1 <0>         0.5376
     23 O2          5.9388   -1.2658   -2.8086 O.2       1 <0>        -0.5240
     24 N4          6.7486    0.7461   -3.2761 N.am      1 <0>        -0.8454
     25 H1         -0.6561    1.8932    1.1309 H         1 <0>         0.1315
     26 H2          1.1533    3.1697    0.0604 H         1 <0>         0.1304
     27 H3          3.0087    1.9933   -1.0478 H         1 <0>         0.1269
     28 H4         -0.6255   -0.5671    1.0918 H         1 <0>         0.1512
     29 H5          2.0754   -2.5545   -0.1148 H         1 <0>         0.4111
     30 H6          0.9583   -4.5884    0.1701 H         1 <0>         0.4047
     31 H7         -1.8589   -4.2959    0.8855 H         1 <0>         0.1089
     32 H8         -1.9615   -4.1885   -1.5740 H         1 <0>         0.1198
     33 H9         -0.9757   -5.6664   -1.6973 H         1 <0>         0.0900
     34 H10        -3.7158   -5.4587   -0.3679 H         1 <0>         0.1335
     35 H11        -3.3880   -6.1803   -1.9611 H         1 <0>         0.1320
     36 H12        -2.9215   -6.4703    1.6002 H         1 <0>         0.1332
     37 H13        -1.9772   -7.9771    1.5345 H         1 <0>         0.1372
     38 H14        -0.1154   -6.7622    0.4344 H         1 <0>         0.0950
     39 H15        -0.5161   -6.0292    2.0070 H         1 <0>         0.1219
     40 H16        -4.5042   -7.9489    0.5801 H         1 <0>         0.1764
     41 H17        -2.7567   -9.8524   -1.1975 H         1 <0>         0.1195
     42 H18        -4.3032  -10.3173   -0.3065 H         1 <0>         0.1341
     43 H19        -5.5879   -8.5735   -1.6266 H         1 <0>         0.1341
     44 H20        -4.0415   -8.1086   -2.5176 H         1 <0>         0.1190
     45 H21         4.0631    1.1520   -2.7143 H         1 <0>         0.1221
     46 H22         4.9717    1.1420   -1.1837 H         1 <0>         0.1223
     47 H23         6.6523    1.7092   -3.2127 H         1 <0>         0.4059
     48 H24         7.5142    0.3642   -3.7331 H         1 <0>         0.4112
     49 H25        -1.9296   -7.7347   -0.8544 H         1 <0>         0.4193
@<TRIPOS>BOND
     1    1    6 ar
     2    1    2 ar
     3    1   25 1
     4    2    3 ar
     5    2   26 1
     6    3    4 ar
     7    3   27 1
     8    4    5 ar
     9    4   20 1
    10    5    6 ar
    11    5    7 1
    12    6   28 1
    13    7    8 am
    14    7   29 1
    15    8    9 2
    16    8   10 am
    17   10   11 1
    18   10   30 1
    19   11   16 1
    20   11   12 1
    21   11   31 1
    22   12   13 1
    23   12   32 1
    24   12   33 1
    25   13   14 1
    26   13   34 1
    27   13   35 1
    28   14   15 1
    29   14   17 1
    30   14   49 1
    31   15   16 1
    32   15   36 1
    33   15   37 1
    34   16   38 1
    35   16   39 1
    36   17   19 1
    37   17   18 1
    38   17   40 1
    39   18   19 1
    40   18   41 1
    41   18   42 1
    42   19   43 1
    43   19   44 1
    44   20   21 1
    45   21   22 1
    46   21   45 1
    47   21   46 1
    48   22   23 2
    49   22   24 am
    50   24   47 1
    51   24   48 1
@<TRIPOS>MOLECULE
ZINC56184301
   53    55     0     0     0
SMALL
USER_CHARGES

@<TRIPOS>ATOM
      1 C1         -0.0187    1.5258    0.0104 C.3       1 <0>        -0.1785
      2 C2          0.0021   -0.0041    0.0020 C.3       1 <0>         0.0711
      3 H1         -1.0205   -0.3814    0.0098 H         1 <0>         0.1614
      4 C3          0.7309   -0.5033    1.2229 C.ar      1 <0>        -0.1796
      5 C4          2.1134   -0.5133    1.2454 C.ar      1 <0>        -0.0802
      6 C5          2.7839   -0.9708    2.3632 C.ar      1 <0>        -0.1346
      7 C6          2.0689   -1.4201    3.4639 C.ar      1 <0>         0.1610
      8 C7          0.6819   -1.4087    3.4391 C.ar      1 <0>        -0.2026
      9 C8          0.0161   -0.9453    2.3208 C.ar      1 <0>        -0.0370
     10 O1          2.7262   -1.8711    4.5646 O.3       1 <0>        -0.2805
     11 C9          1.9256   -2.3184    5.6605 C.3       1 <0>         0.0387
     12 C10         2.8210   -2.7782    6.7820 C.2       1 <0>         0.5184
     13 O2          4.0261   -2.7279    6.6553 O.2       1 <0>        -0.5083
     14 N1          2.2826   -3.2454    7.9259 N.am      1 <0>        -0.6969
     15 C11         3.1530   -3.6924    9.0161 C.3       1 <0>         0.0736
     16 C12         2.7815   -4.9947    9.7281 C.3       1 <0>        -0.1890
     17 C13         2.5841   -3.6527   10.4359 C.3       1 <0>        -0.1844
     18 N2          0.6897   -0.4778   -1.2066 N.4       1 <0>        -0.4896
     19 C14        -0.0856   -0.0931   -2.3936 C.3       1 <0>         0.0559
     20 H2         -0.2549    0.9836   -2.3837 H         1 <0>         0.1736
     21 C15         0.6786   -0.4701   -3.6366 C.ar      1 <0>        -0.1541
     22 C16         1.3610   -1.6711   -3.6908 C.ar      1 <0>        -0.1132
     23 C17         2.0620   -2.0168   -4.8309 C.ar      1 <0>        -0.1002
     24 C18         2.0802   -1.1618   -5.9170 C.ar      1 <0>        -0.0828
     25 C19         1.3971    0.0387   -5.8631 C.ar      1 <0>        -0.1029
     26 C20         0.6926    0.3826   -4.7245 C.ar      1 <0>        -0.0870
     27 C21        -1.4110   -0.8102   -2.3820 C.2       1 <0>         0.5205
     28 O3         -1.6830   -1.5672   -1.4743 O.2       1 <0>        -0.5236
     29 N3         -2.2941   -0.6103   -3.3803 N.am      1 <0>        -0.8179
     30 H3          1.0039    1.9031    0.0027 H         1 <0>         0.0853
     31 H4         -0.5459    1.8868   -0.8726 H         1 <0>         0.0776
     32 H5         -0.5289    1.8773    0.9072 H         1 <0>         0.1105
     33 H6          2.6695   -0.1634    0.3882 H         1 <0>         0.1265
     34 H7          3.8637   -0.9791    2.3800 H         1 <0>         0.1462
     35 H8          0.1231   -1.7579    4.2947 H         1 <0>         0.1414
     36 H9         -1.0636   -0.9320    2.3026 H         1 <0>         0.1382
     37 H10         1.2975   -1.4989    6.0098 H         1 <0>         0.1006
     38 H11         1.2954   -3.1463    5.3360 H         1 <0>         0.1003
     39 H12         1.3187   -3.2856    8.0272 H         1 <0>         0.4041
     40 H13         4.2131   -3.4709    8.8923 H         1 <0>         0.1414
     41 H14         1.8894   -5.5189    9.3852 H         1 <0>         0.0989
     42 H15         3.5971   -5.6303   10.0727 H         1 <0>         0.1070
     43 H16         3.2700   -3.4054   11.2461 H         1 <0>         0.1084
     44 H17         1.5622   -3.2940   10.5587 H         1 <0>         0.0996
     45 H18         1.6080   -0.0627   -1.2556 H         1 <0>         0.4307
     46 H19         1.3467   -2.3390   -2.8423 H         1 <0>         0.1227
     47 H20         2.5956   -2.9548   -4.8731 H         1 <0>         0.1396
     48 H21         2.6285   -1.4317   -6.8075 H         1 <0>         0.1396
     49 H22         1.4117    0.7069   -6.7115 H         1 <0>         0.1416
     50 H23         0.1558    1.3188   -4.6838 H         1 <0>         0.1379
     51 H24        -2.0766   -0.0049   -4.1063 H         1 <0>         0.4125
     52 H25        -3.1472   -1.0719   -3.3728 H         1 <0>         0.4249
     53 H26         0.7761   -1.4825   -1.1724 H         1 <0>         0.4329
@<TRIPOS>BOND
     1    1    2 1
     2    1   30 1
     3    1   31 1
     4    1   32 1
     5    2    3 1
     6    2    4 1
     7    2   18 1
     8    4    9 ar
     9    4    5 ar
    10    5    6 ar
    11    5   33 1
    12    6    7 ar
    13    6   34 1
    14    7    8 ar
    15    7   10 1
    16    8    9 ar
    17    8   35 1
    18    9   36 1
    19   10   11 1
    20   11   12 1
    21   11   37 1
    22   11   38 1
    23   12   13 2
    24   12   14 am
    25   14   15 1
    26   14   39 1
    27   15   17 1
    28   15   16 1
    29   15   40 1
    30   16   17 1
    31   16   41 1
    32   16   42 1
    33   17   43 1
    34   17   44 1
    35   18   19 1
    36   18   45 1
    37   18   53 1
    38   19   20 1
    39   19   21 1
    40   19   27 1
    41   21   26 ar
    42   21   22 ar
    43   22   23 ar
    44   22   46 1
    45   23   24 ar
    46   23   47 1
    47   24   25 ar
    48   24   48 1
    49   25   26 ar
    50   25   49 1
    51   26   50 1
    52   27   28 2
    53   27   29 am
    54   29   51 1
    55   29   52 1
@<TRIPOS>MOLECULE
ZINC66864209
   43    44     0     0     0
SMALL
USER_CHARGES

@<TRIPOS>ATOM
      1 C1          0.0126    1.3919    1.3777 C.ar      1 <0>        -0.0811
      2 C2          1.1070    2.1289    0.9633 C.ar      1 <0>        -0.1232
      3 C3          2.2402    1.4876    0.4983 C.ar      1 <0>        -0.0671
      4 C4          2.2824    0.1072    0.4464 C.ar      1 <0>        -0.1227
      5 C5          1.1845   -0.6357    0.8625 C.ar      1 <0>         0.1662
      6 C6          0.0483    0.0121    1.3289 C.ar      1 <0>        -0.1247
      7 N1          1.2234   -2.0338    0.8109 N.am      1 <0>        -0.6586
      8 C7          0.0768   -2.7371    0.7261 C.2       1 <0>         0.5114
      9 O1         -0.9810   -2.1588    0.5941 O.2       1 <0>        -0.5097
     10 C8          0.1093   -4.2422    0.7954 C.3       1 <0>         0.0978
     11 N2         -1.2542   -4.7658    0.6809 N.am      1 <0>        -0.6918
     12 C9         -1.4707   -6.0955    0.7174 C.2       1 <0>         0.5089
     13 O2         -0.5367   -6.8587    0.8451 O.2       1 <0>        -0.5275
     14 C10        -2.8732   -6.6341    0.5996 C.3       1 <0>        -0.0448
     15 N3         -2.8416   -8.1012    0.6671 N.4       1 <0>        -0.3617
     16 C11        -2.1840   -8.6409   -0.5420 C.3       1 <0>        -0.0082
     17 C12        -2.9539   -9.9465   -0.8617 C.3       1 <0>        -0.1374
     18 C13        -4.4082   -9.5508   -0.4940 C.3       1 <0>        -0.1290
     19 C14        -4.2186   -8.6250    0.7260 C.3       1 <0>         0.0021
     20 H1         -4.3610   -9.1909    1.6466 H         1 <0>         0.1607
     21 C15        -5.2035   -7.4861    0.6633 C.2       1 <0>         0.5065
     22 O3         -5.1822   -6.7170   -0.2743 O.2       1 <0>        -0.5106
     23 N4         -6.1078   -7.3221    1.6490 N.am      1 <0>        -0.8245
     24 Br1         3.8321   -0.7694   -0.1908 Br        1 <0>        -0.0389
     25 H2         -0.8695    1.8959    1.7443 H         1 <0>         0.1369
     26 H3          1.0763    3.2077    1.0027 H         1 <0>         0.1382
     27 H4          3.0931    2.0660    0.1751 H         1 <0>         0.1414
     28 H5         -0.8068   -0.5625    1.6531 H         1 <0>         0.1525
     29 H6          2.0755   -2.4965    0.8361 H         1 <0>         0.4184
     30 H7          0.7174   -4.6305   -0.0216 H         1 <0>         0.1173
     31 H8          0.5390   -4.5529    1.7477 H         1 <0>         0.1181
     32 H9         -2.0011   -4.1554    0.5788 H         1 <0>         0.4231
     33 H10        -3.4813   -6.2458    1.4166 H         1 <0>         0.1521
     34 H11        -3.3029   -6.3234   -0.3527 H         1 <0>         0.1875
     35 H12        -2.2725   -7.9361   -1.3687 H         1 <0>         0.1328
     36 H13        -1.1355   -8.8588   -0.3385 H         1 <0>         0.1505
     37 H14        -2.8733  -10.1984   -1.9192 H         1 <0>         0.1247
     38 H15        -2.6035  -10.7691   -0.2382 H         1 <0>         0.1050
     39 H16        -4.8809   -9.0132   -1.3160 H         1 <0>         0.1108
     40 H17        -4.9904  -10.4315   -0.2227 H         1 <0>         0.1238
     41 H18        -6.1248   -7.9372    2.3989 H         1 <0>         0.4137
     42 H19        -6.7417   -6.5890    1.6086 H         1 <0>         0.4246
     43 H20        -2.3319   -8.3932    1.4875 H         1 <0>         0.4365
@<TRIPOS>BOND
     1    1    6 ar
     2    1    2 ar
     3    1   25 1
     4    2    3 ar
     5    2   26 1
     6    3    4 ar
     7    3   27 1
     8    4    5 ar
     9    4   24 1
    10    5    6 ar
    11    5    7 1
    12    6   28 1
    13    7    8 am
    14    7   29 1
    15    8    9 2
    16    8   10 1
    17   10   11 1
    18   10   30 1
    19   10   31 1
    20   11   12 am
    21   11   32 1
    22   12   13 2
    23   12   14 1
    24   14   15 1
    25   14   33 1
    26   14   34 1
    27   15   19 1
    28   15   16 1
    29   15   43 1
    30   16   17 1
    31   16   35 1
    32   16   36 1
    33   17   18 1
    34   17   37 1
    35   17   38 1
    36   18   19 1
    37   18   39 1
    38   18   40 1
    39   19   20 1
    40   19   21 1
    41   21   22 2
    42   21   23 am
    43   23   41 1
    44   23   42 1
@<TRIPOS>MOLECULE
ZINC04185190
   48    50     0     0     0
SMALL
USER_CHARGES
2-(hydroxymethyl)-6-(3-nitro-5-phenylsulfanyl-phenyl)amino-tetrahydropyran-3,4,5-triol
@<TRIPOS>ATOM
      1 C1          7.8920    3.6455    5.2368 C.ar      1 <0>        -0.1190
      2 C2          7.6292    2.8594    6.3440 C.ar      1 <0>        -0.1000
      3 C3          6.3467    2.4071    6.5830 C.ar      1 <0>        -0.0952
      4 C4          5.3194    2.7422    5.7092 C.ar      1 <0>        -0.1039
      5 C5          5.5882    3.5271    4.5943 C.ar      1 <0>        -0.1244
      6 C6          6.8720    3.9810    4.3650 C.ar      1 <0>        -0.1015
      7 S1          3.6812    2.1674    6.0102 S.3       1 <0>         0.0208
      8 C7          2.7789    2.6880    4.5891 C.ar      1 <0>        -0.0971
      9 C8          2.7647    1.8984    3.4469 C.ar      1 <0>        -0.0882
     10 C9          2.0572    2.3148    2.3285 C.ar      1 <0>         0.2155
     11 C10         1.3563    3.5149    2.3583 C.ar      1 <0>        -0.1043
     12 C11         1.3682    4.2957    3.4980 C.ar      1 <0>        -0.0003
     13 C12         2.0758    3.8869    4.6119 C.ar      1 <0>        -0.0558
     14 N1          0.6206    5.5729    3.5259 N.pl3     1 <0>         0.0254
     15 O1         -0.0040    5.9345    2.5447 O.2       1 <0>        -0.1511
     16 O2          0.6301    6.2624    4.5299 O.3       1 <0>        -0.1473
     17 N2          2.0446    1.5263    1.1758 N.pl3     1 <0>        -0.7440
     18 C13         1.2924    1.9638   -0.0028 C.3       1 <0>         0.2736
     19 H1          1.1911    3.0490    0.0127 H         1 <0>         0.1289
     20 C14         2.0374    1.5385   -1.2708 C.3       1 <0>         0.0506
     21 H2          3.0428    1.9594   -1.2610 H         1 <0>         0.0722
     22 C15         2.1228    0.0098   -1.3150 C.3       1 <0>         0.0783
     23 H3          2.7034   -0.3477   -0.4646 H         1 <0>         0.0719
     24 C16         0.7072   -0.5718   -1.2498 C.3       1 <0>         0.0913
     25 H4          0.7613   -1.6601   -1.2250 H         1 <0>         0.0722
     26 C17         0.0135   -0.0650    0.0174 C.3       1 <0>         0.1029
     27 H5          0.5565   -0.4171    0.8945 H         1 <0>         0.0783
     28 O3         -0.0046    1.3639    0.0099 O.3       1 <0>        -0.3472
     29 C18        -1.4217   -0.5933    0.0597 C.3       1 <0>         0.0886
     30 O4         -2.0317   -0.2166    1.2958 O.3       1 <0>        -0.5683
     31 O5         -0.0335   -0.1553   -2.3987 O.3       1 <0>        -0.5286
     32 O6          2.7527   -0.4006   -2.5303 O.3       1 <0>        -0.5477
     33 O7          1.3319    2.0109   -2.4202 O.3       1 <0>        -0.5178
     34 H6          8.8959    3.9985    5.0527 H         1 <0>         0.1271
     35 H7          8.4281    2.5994    7.0227 H         1 <0>         0.1310
     36 H8          6.1421    1.7939    7.4482 H         1 <0>         0.1304
     37 H9          4.7932    3.7855    3.9105 H         1 <0>         0.1175
     38 H10         7.0808    4.5950    3.5014 H         1 <0>         0.1253
     39 H11         3.3061    0.9642    3.4280 H         1 <0>         0.1502
     40 H12         0.8021    3.8375    1.4893 H         1 <0>         0.1583
     41 H13         2.0830    4.4996    5.5012 H         1 <0>         0.1625
     42 H14         2.5338    0.6889    1.1555 H         1 <0>         0.4037
     43 H15        -1.9892   -0.1702   -0.7693 H         1 <0>         0.0693
     44 H16        -1.4115   -1.6800   -0.0242 H         1 <0>         0.0614
     45 H17        -2.9453   -0.5187    1.3918 H         1 <0>         0.3844
     46 H18         0.3496   -0.4422   -3.2390 H         1 <0>         0.3852
     47 H19         3.6541   -0.0676   -2.6379 H         1 <0>         0.3861
     48 H20         1.2401    2.9728   -2.4576 H         1 <0>         0.3787
@<TRIPOS>BOND
     1    1    6 ar
     2    1    2 ar
     3    1   34 1
     4    2    3 ar
     5    2   35 1
     6    3    4 ar
     7    3   36 1
     8    4    5 ar
     9    4    7 1
    10    5    6 ar
    11    5   37 1
    12    6   38 1
    13    7    8 1
    14    8   13 ar
    15    8    9 ar
    16    9   10 ar
    17    9   39 1
    18   10   11 ar
    19   10   17 1
    20   11   12 ar
    21   11   40 1
    22   12   13 ar
    23   12   14 1
    24   13   41 1
    25   14   15 2
    26   14   16 1
    27   17   18 1
    28   17   42 1
    29   18   19 1
    30   18   28 1
    31   18   20 1
    32   20   21 1
    33   20   22 1
    34   20   33 1
    35   22   23 1
    36   22   24 1
    37   22   32 1
    38   24   25 1
    39   24   26 1
    40   24   31 1
    41   26   27 1
    42   26   28 1
    43   26   29 1
    44   29   30 1
    45   29   43 1
    46   29   44 1
    47   30   45 1
    48   31   46 1
    49   32   47 1
    50   33   48 1
@<TRIPOS>MOLECULE
ZINC12483814
   52    54     0     0     0
SMALL
USER_CHARGES
4-methyl-N-[4-[(2R,3S,4R,5S,6R)-3,4,5-trihydroxy-6-(hydroxymethyl)tetrahydropyran-2-yl]oxyphenyl]benzenesulfonamide
@<TRIPOS>ATOM
      1 C1         -0.1066   -5.7493   -3.4443 C.3       1 <0>        -0.1262
      2 C2          0.1049   -4.3403   -2.9532 C.ar      1 <0>        -0.0262
      3 C3         -0.7583   -3.3346   -3.3459 C.ar      1 <0>        -0.1430
      4 C4         -0.5646   -2.0422   -2.8951 C.ar      1 <0>        -0.0142
      5 C5          0.4926   -1.7556   -2.0518 C.ar      1 <0>        -0.6805
      6 C6          1.3591   -2.7603   -1.6636 C.ar      1 <0>        -0.0106
      7 C7          1.1623   -4.0536   -2.1103 C.ar      1 <0>        -0.1421
      8 S1          0.7399   -0.1083   -1.4776 S.o2      1 <0>         2.6887
      9 O1          0.2296    0.7540   -2.4852 O.2       1 <0>        -0.9546
     10 O2          2.0835   -0.0348   -1.0208 O.2       1 <0>        -0.9493
     11 N1         -0.2243    0.0963   -0.1468 N.pl3     1 <0>        -1.0585
     12 C8          0.0022   -0.6653    1.0051 C.ar      1 <0>         0.0849
     13 C9          1.0763   -0.3689    1.8338 C.ar      1 <0>        -0.0624
     14 C10         1.2960   -1.1178    2.9733 C.ar      1 <0>        -0.1813
     15 C11         0.4504   -2.1723    3.2843 C.ar      1 <0>         0.1401
     16 C12        -0.6193   -2.4726    2.4541 C.ar      1 <0>        -0.1398
     17 C13        -0.8436   -1.7215    1.3170 C.ar      1 <0>        -0.0740
     18 O3          0.6706   -2.9124    4.4039 O.3       1 <0>        -0.3066
     19 C14         1.7904   -2.5474    5.2131 C.3       1 <0>         0.2130
     20 H1          2.6771   -2.4544    4.5861 H         1 <0>         0.1144
     21 C15         2.0261   -3.6251    6.2746 C.3       1 <0>         0.0596
     22 H2          2.1831   -4.5876    5.7878 H         1 <0>         0.0836
     23 C16         0.7995   -3.7077    7.1883 C.3       1 <0>         0.0827
     24 H3          0.9830   -4.4338    7.9803 H         1 <0>         0.0753
     25 C17         0.5429   -2.3297    7.8060 C.3       1 <0>         0.0942
     26 H4          1.3913   -2.0459    8.4287 H         1 <0>         0.0862
     27 C18         0.3644   -1.3020    6.6854 C.3       1 <0>         0.1049
     28 H5         -0.5084   -1.5641    6.0874 H         1 <0>         0.0908
     29 O4          1.5274   -1.2980    5.8550 O.3       1 <0>        -0.3570
     30 C19         0.1674    0.0877    7.2942 C.3       1 <0>         0.0876
     31 O5         -0.1135    1.0276    6.2550 O.3       1 <0>        -0.5646
     32 O6         -0.6413   -2.3759    8.6045 O.3       1 <0>        -0.5484
     33 O7         -0.3396   -4.1087    6.4243 O.3       1 <0>        -0.5267
     34 O8          3.1776   -3.2874    7.0504 O.3       1 <0>        -0.5386
     35 H6          0.4389   -5.8948   -4.3766 H         1 <0>         0.0802
     36 H7          0.2579   -6.4533   -2.6962 H         1 <0>         0.0731
     37 H8         -1.1697   -5.9187   -3.6151 H         1 <0>         0.0734
     38 H9         -1.5843   -3.5585   -4.0047 H         1 <0>         0.1333
     39 H10        -1.2390   -1.2565   -3.2019 H         1 <0>         0.1389
     40 H11         2.1877   -2.5355   -1.0083 H         1 <0>         0.1400
     41 H12         1.8369   -4.8393   -1.8037 H         1 <0>         0.1323
     42 H13        -0.9461    0.7440   -0.1658 H         1 <0>         0.4247
     43 H14         1.7372    0.4496    1.5895 H         1 <0>         0.1374
     44 H15         2.1291   -0.8850    3.6199 H         1 <0>         0.1373
     45 H16        -1.2768   -3.2943    2.6967 H         1 <0>         0.1360
     46 H17        -1.6763   -1.9558    0.6705 H         1 <0>         0.1341
     47 H18        -0.6662    0.0621    7.9960 H         1 <0>         0.0721
     48 H19         1.0749    0.3866    7.8188 H         1 <0>         0.0520
     49 H20        -0.2501    1.9319    6.5690 H         1 <0>         0.3811
     50 H21        -0.5984   -3.0077    9.3354 H         1 <0>         0.3837
     51 H22        -0.2462   -4.9744    6.0037 H         1 <0>         0.3794
     52 H23         3.9919   -3.2133    6.5341 H         1 <0>         0.3893
@<TRIPOS>BOND
     1    1    2 1
     2    1   35 1
     3    1   36 1
     4    1   37 1
     5    2    7 ar
     6    2    3 ar
     7    3    4 ar
     8    3   38 1
     9    4    5 ar
    10    4   39 1
    11    5    6 ar
    12    5    8 1
    13    6    7 ar
    14    6   40 1
    15    7   41 1
    16    8    9 2
    17    8   10 2
    18    8   11 1
    19   11   12 1
    20   11   42 1
    21   12   17 ar
    22   12   13 ar
    23   13   14 ar
    24   13   43 1
    25   14   15 ar
    26   14   44 1
    27   15   16 ar
    28   15   18 1
    29   16   17 ar
    30   16   45 1
    31   17   46 1
    32   18   19 1
    33   19   20 1
    34   19   29 1
    35   19   21 1
    36   21   22 1
    37   21   23 1
    38   21   34 1
    39   23   24 1
    40   23   25 1
    41   23   33 1
    42   25   26 1
    43   25   27 1
    44   25   32 1
    45   27   28 1
    46   27   29 1
    47   27   30 1
    48   30   31 1
    49   30   47 1
    50   30   48 1
    51   31   49 1
    52   32   50 1
    53   33   51 1
    54   34   52 1
@<TRIPOS>MOLECULE
ZINC29351750
   49    50     0     0     0
SMALL
USER_CHARGES
(2S)-2-[(4,6-diamino-1,3,5-triazin-2-yl)methylsulfanyl]-N-(3,4,5-trimethoxyphenyl)propanamide
@<TRIPOS>ATOM
      1 C1          1.9553    8.4830   -1.2309 C.3       1 <0>        -0.1508
      2 C2          0.4530    8.2401   -1.3886 C.3       1 <0>        -0.1037
      3 H1          0.3580    7.6355   -2.3026 H         1 <0>         0.1143
      4 C3         -0.0243    7.3187   -0.2957 C.2       1 <0>         0.5339
      5 O1         -0.5813    7.7737    0.6809 O.2       1 <0>        -0.4946
      6 N1          0.1679    5.9891   -0.4036 N.am      1 <0>        -0.6819
      7 C4         -0.3718    5.1232    0.5563 C.ar      1 <0>         0.2286
      8 C5          0.3032    3.9595    0.8986 C.ar      1 <0>        -0.2617
      9 C6         -0.2300    3.1023    1.8482 C.ar      1 <0>         0.1693
     10 C7         -1.4384    3.4106    2.4616 C.ar      1 <0>         0.0122
     11 C8         -2.1164    4.5731    2.1142 C.ar      1 <0>         0.1706
     12 C9         -1.5816    5.4292    1.1644 C.ar      1 <0>        -0.2381
     13 O2         -3.3014    4.8733    2.7101 O.3       1 <0>        -0.2989
     14 C10        -3.9402    6.0870    2.3089 C.3       1 <0>         0.0206
     15 O3         -1.9603    2.5719    3.3987 O.3       1 <0>        -0.3102
     16 C11        -2.8289    1.5377    2.9319 C.3       1 <0>         0.0316
     17 O4          0.4317    1.9625    2.1836 O.3       1 <0>        -0.2989
     18 C12         1.6710    1.7120    1.5177 C.3       1 <0>         0.0209
     19 S1         -0.4303    9.8205   -1.2756 S.3       1 <0>        -0.1128
     20 C13         0.1378   10.7456   -2.7289 C.3       1 <0>        -0.0475
     21 C14        -0.5287   12.0969   -2.7563 C.ar      1 <0>         0.4465
     22 N2         -1.6790   12.2515   -3.3882 N.ar      1 <0>        -0.6337
     23 C15        -2.2732   13.4425   -3.4108 C.ar      1 <0>         0.6351
     24 N3         -1.7032   14.4787   -2.8055 N.ar      1 <0>        -0.6633
     25 C16        -0.5443   14.3204   -2.1755 C.ar      1 <0>         0.6353
     26 N4          0.0413   13.1252   -2.1531 N.ar      1 <0>        -0.6322
     27 N5          0.0520   15.3938   -1.5457 N.pl3     1 <0>        -0.8301
     28 N6         -3.4769   13.6018   -4.0664 N.pl3     1 <0>        -0.8303
     29 H2          2.3037    9.1555   -2.0286 H         1 <0>         0.0753
     30 H3          2.4908    7.5246   -1.2994 H         1 <0>         0.0705
     31 H4          2.1514    8.9435   -0.2514 H         1 <0>         0.0783
     32 H5          0.7485    5.5838   -1.2454 H         1 <0>         0.4376
     33 H6          1.2441    3.7219    0.4245 H         1 <0>         0.1389
     34 H7         -2.1061    6.3347    0.8975 H         1 <0>         0.1489
     35 H8         -4.8821    6.2065    2.8643 H         1 <0>         0.1054
     36 H9         -4.1527    6.0503    1.2302 H         1 <0>         0.0567
     37 H10        -3.2775    6.9384    2.5233 H         1 <0>         0.0643
     38 H11        -3.1767    0.9378    3.7858 H         1 <0>         0.0935
     39 H12        -2.2844    0.8917    2.2275 H         1 <0>         0.0441
     40 H13        -3.6942    1.9875    2.4231 H         1 <0>         0.0443
     41 H14         2.0971    0.7648    1.8801 H         1 <0>         0.1054
     42 H15         2.3722    2.5333    1.7269 H         1 <0>         0.0590
     43 H16         1.4977    1.6450    0.4335 H         1 <0>         0.0578
     44 H17         1.2288   10.8759   -2.6771 H         1 <0>         0.1145
     45 H18        -0.1222   10.1899   -3.6419 H         1 <0>         0.1135
     46 H19         1.0115   15.2619   -1.0243 H         1 <0>         0.4417
     47 H20        -0.4322   16.3813   -1.5651 H         1 <0>         0.4394
     48 H21        -3.9672   14.5863   -4.0846 H         1 <0>         0.4394
     49 H22        -3.9461   12.7443   -4.5708 H         1 <0>         0.4413
@<TRIPOS>BOND
     1    1    2 1
     2    1   29 1
     3    1   30 1
     4    1   31 1
     5    2    3 1
     6    2    4 1
     7    2   19 1
     8    4    5 2
     9    4    6 am
    10    6    7 1
    11    6   32 1
    12    7   12 ar
    13    7    8 ar
    14    8    9 ar
    15    8   33 1
    16    9   10 ar
    17    9   17 1
    18   10   11 ar
    19   10   15 1
    20   11   12 ar
    21   11   13 1
    22   12   34 1
    23   13   14 1
    24   14   35 1
    25   14   36 1
    26   14   37 1
    27   15   16 1
    28   16   38 1
    29   16   39 1
    30   16   40 1
    31   17   18 1
    32   18   41 1
    33   18   42 1
    34   18   43 1
    35   19   20 1
    36   20   21 1
    37   20   44 1
    38   20   45 1
    39   21   26 ar
    40   21   22 ar
    41   22   23 ar
    42   23   24 ar
    43   23   28 1
    44   24   25 ar
    45   25   26 ar
    46   25   27 1
    47   27   46 1
    48   27   47 1
    49   28   48 1
    50   28   49 1
@<TRIPOS>MOLECULE
ZINC38999066
   41    43     0     0     0
SMALL
USER_CHARGES

@<TRIPOS>ATOM
      1 C1         -0.0183    1.5076   -0.0003 C.3       1 <0>        -0.0925
      2 C2          0.0028    0.0008   -0.0076 C.2       1 <0>        -0.0129
      3 C3         -1.0852   -0.7725   -0.0050 C.2       1 <0>        -0.1896
      4 C4         -0.5294   -2.1855   -0.0149 C.3       1 <0>        -0.0112
      5 H1         -0.8339   -2.7259    0.8813 H         1 <0>         0.1483
      6 N1          0.9274   -1.9682   -0.0224 N.2       1 <0>        -0.1014
      7 N2          1.1259   -0.7508   -0.0236 N.2       1 <0>        -0.1674
      8 C5         -0.9751   -2.9334   -1.2730 C.3       1 <0>         0.2196
      9 H2         -2.0606   -2.9052   -1.3680 H         1 <0>         0.0631
     10 N3         -0.3321   -2.3507   -2.4799 N.3       1 <0>        -0.4657
     11 N4         -0.3676   -3.4613   -3.4443 N.3       1 <0>        -0.4809
     12 C6         -0.1024   -4.6682   -2.6286 C.3       1 <0>         0.2405
     13 H3          0.9572   -4.9209   -2.6689 H         1 <0>         0.1647
     14 N5         -0.4938   -4.3340   -1.2413 N.3       1 <0>        -0.3527
     15 N6         -1.5316   -5.2308   -0.7590 N.3       1 <0>        -0.6992
     16 S1         -1.0962   -6.0593   -3.2351 S.3       1 <0>        -0.1303
     17 C7         -2.8061   -5.4692   -3.0991 C.3       1 <0>        -0.1471
     18 C8         -3.7480   -6.5439   -3.5776 C.2       1 <0>         0.5216
     19 O1         -3.3090   -7.6036   -3.9716 O.2       1 <0>        -0.4414
     20 N7         -5.0782   -6.3275   -3.5677 N.am      1 <0>        -0.6582
     21 C9         -5.9433   -7.2783   -4.1080 C.ar      1 <0>         0.3748
     22 C10        -7.3037   -7.0033   -4.1907 C.ar      1 <0>        -0.2010
     23 C11        -8.1513   -7.9550   -4.7293 C.ar      1 <0>        -0.0165
     24 C12        -7.6063   -9.1548   -5.1688 C.ar      1 <0>        -0.1793
     25 C13        -6.2448   -9.3603   -5.0559 C.ar      1 <0>         0.1709
     26 N8         -5.4610   -8.4316   -4.5423 N.ar      1 <0>        -0.4680
     27 Br1        -8.7162  -10.4926   -5.9132 Br        1 <0>        -0.0298
     28 H4          1.0041    1.8854   -0.0094 H         1 <0>         0.0815
     29 H5         -0.5467    1.8678   -0.8831 H         1 <0>         0.0792
     30 H6         -0.5277    1.8595    0.8968 H         1 <0>         0.0786
     31 H7         -2.1203   -0.4646    0.0028 H         1 <0>         0.1681
     32 H8         -0.8552   -1.5584   -2.8214 H         1 <0>         0.3526
     33 H9         -1.2685   -3.5202   -3.8949 H         1 <0>         0.3169
     34 H10        -1.2037   -6.1848   -0.7374 H         1 <0>         0.3815
     35 H11        -1.8656   -4.9426    0.1484 H         1 <0>         0.3529
     36 H12        -3.0263   -5.2300   -2.0587 H         1 <0>         0.1485
     37 H13        -2.9322   -4.5765   -3.7117 H         1 <0>         0.0961
     38 H14        -5.4338   -5.5103   -3.1847 H         1 <0>         0.4192
     39 H15        -7.6936   -6.0596   -3.8388 H         1 <0>         0.1460
     40 H16        -9.2125   -7.7695   -4.8060 H         1 <0>         0.1502
     41 H17        -5.8161  -10.2914   -5.3961 H         1 <0>         0.1702
@<TRIPOS>BOND
     1    1    2 1
     2    1   28 1
     3    1   29 1
     4    1   30 1
     5    2    7 1
     6    2    3 2
     7    3    4 1
     8    3   31 1
     9    4    5 1
    10    4    6 1
    11    4    8 1
    12    6    7 2
    13    8    9 1
    14    8   14 1
    15    8   10 1
    16   10   11 1
    17   10   32 1
    18   11   12 1
    19   11   33 1
    20   12   13 1
    21   12   14 1
    22   12   16 1
    23   14   15 1
    24   15   34 1
    25   15   35 1
    26   16   17 1
    27   17   18 1
    28   17   36 1
    29   17   37 1
    30   18   19 2
    31   18   20 am
    32   20   21 1
    33   20   38 1
    34   21   26 ar
    35   21   22 ar
    36   22   23 ar
    37   22   39 1
    38   23   24 ar
    39   23   40 1
    40   24   25 ar
    41   24   27 1
    42   25   26 ar
    43   25   41 1
@<TRIPOS>MOLECULE
ZINC56206463
   53    54     0     0     0
SMALL
USER_CHARGES

@<TRIPOS>ATOM
      1 C1         -0.0184    1.5028    0.0103 C.3       1 <0>        -0.1116
      2 C2          0.0021   -0.0041    0.0020 C.ar      1 <0>        -0.1118
      3 C3          0.0057   -0.6883   -1.1979 C.ar      1 <0>        -0.0974
      4 C4          0.0245   -2.0750   -1.2057 C.ar      1 <0>         0.0767
      5 C5          0.0396   -2.7761   -0.0088 C.ar      1 <0>        -0.1657
      6 C6          0.0360   -2.0936    1.1916 C.ar      1 <0>        -0.1579
      7 C7          0.0230   -0.7049    1.2004 C.ar      1 <0>         0.1872
      8 N1          0.0251   -0.0124    2.4164 N.pl3     1 <0>        -0.7327
      9 C8          0.0471   -0.7522    3.6807 C.3       1 <0>         0.1385
     10 H1         -0.5309   -1.6702    3.5746 H         1 <0>         0.1105
     11 C9          1.4925   -1.0988    4.0437 C.3       1 <0>        -0.1689
     12 C10        -0.5546    0.0972    4.7704 C.2       1 <0>         0.5155
     13 O1         -0.9617    1.2105    4.5161 O.2       1 <0>        -0.4576
     14 N2         -0.6403   -0.3808    6.0276 N.am      1 <0>        -0.6878
     15 C11        -1.1785    0.3788    7.0022 C.2       1 <0>         0.6939
     16 O2         -1.5865    1.4949    6.7472 O.2       1 <0>        -0.5289
     17 N3         -1.2642   -0.0992    8.2594 N.am      1 <0>        -0.7308
     18 C12        -1.8492    0.7266    9.3187 C.3       1 <0>         0.1380
     19 C13        -1.8261   -0.0461   10.6391 C.3       1 <0>         0.0674
     20 H2         -0.8025   -0.3107   10.9041 H         1 <0>         0.0807
     21 C14        -2.4729    0.7968   11.7669 C.3       1 <0>        -0.1487
     22 C15        -2.9270   -0.3198   12.7461 C.3       1 <0>        -0.1559
     23 C16        -3.3095   -1.4643   11.7832 C.3       1 <0>         0.0501
     24 O3         -2.6366   -1.2279   10.5394 O.3       1 <0>        -0.3790
     25 O4          0.0276   -2.7479   -2.3876 O.3       1 <0>        -0.2929
     26 C17         0.0473   -4.1753   -2.3214 C.3       1 <0>         0.0420
     27 C18         0.0479   -4.7429   -3.7174 C.2       1 <0>         0.5184
     28 O5          0.0330   -3.9985   -4.6747 O.2       1 <0>        -0.5169
     29 N4          0.0651   -6.0779   -3.9020 N.am      1 <0>        -0.8515
     30 H3          1.0042    1.8801    0.0026 H         1 <0>         0.0713
     31 H4         -0.5455    1.8639   -0.8728 H         1 <0>         0.0718
     32 H5         -0.5286    1.8543    0.9071 H         1 <0>         0.0653
     33 H6         -0.0064   -0.1433   -2.1302 H         1 <0>         0.1336
     34 H7          0.0538   -3.8559   -0.0158 H         1 <0>         0.1264
     35 H8          0.0474   -2.6396    2.1234 H         1 <0>         0.1250
     36 H9          0.0119    0.9575    2.4223 H         1 <0>         0.4103
     37 H10         2.0705   -0.1808    4.1498 H         1 <0>         0.0687
     38 H11         1.5089   -1.6492    4.9843 H         1 <0>         0.0697
     39 H12         1.9277   -1.7131    3.2555 H         1 <0>         0.0796
     40 H13        -0.3146   -1.2716    6.2311 H         1 <0>         0.4110
     41 H14        -0.9385   -0.9899    8.4628 H         1 <0>         0.4030
     42 H15        -1.2711    1.6446    9.4248 H         1 <0>         0.0845
     43 H16        -2.8789    0.9734    9.0601 H         1 <0>         0.0777
     44 H17        -1.7407    1.4553   12.2343 H         1 <0>         0.0894
     45 H18        -3.3262    1.3632   11.3939 H         1 <0>         0.0853
     46 H19        -2.1075   -0.6199   13.3992 H         1 <0>         0.0791
     47 H20        -3.7904    0.0023   13.3282 H         1 <0>         0.0860
     48 H21        -2.9898   -2.4198   12.1990 H         1 <0>         0.0709
     49 H22        -4.3881   -1.4704   11.6260 H         1 <0>         0.0718
     50 H23         0.9445   -4.5023   -1.7958 H         1 <0>         0.0921
     51 H24        -0.8353   -4.5264   -1.7868 H         1 <0>         0.0921
     52 H25         0.0770   -6.6733   -3.1363 H         1 <0>         0.4030
     53 H26         0.0655   -6.4433   -4.8005 H         1 <0>         0.4093
@<TRIPOS>BOND
     1    1    2 1
     2    1   30 1
     3    1   31 1
     4    1   32 1
     5    2    7 ar
     6    2    3 ar
     7    3    4 ar
     8    3   33 1
     9    4    5 ar
    10    4   25 1
    11    5    6 ar
    12    5   34 1
    13    6    7 ar
    14    6   35 1
    15    7    8 1
    16    8    9 1
    17    8   36 1
    18    9   10 1
    19    9   11 1
    20    9   12 1
    21   11   37 1
    22   11   38 1
    23   11   39 1
    24   12   13 2
    25   12   14 am
    26   14   15 am
    27   14   40 1
    28   15   16 2
    29   15   17 am
    30   17   18 1
    31   17   41 1
    32   18   19 1
    33   18   42 1
    34   18   43 1
    35   19   20 1
    36   19   24 1
    37   19   21 1
    38   21   22 1
    39   21   44 1
    40   21   45 1
    41   22   23 1
    42   22   46 1
    43   22   47 1
    44   23   24 1
    45   23   48 1
    46   23   49 1
    47   25   26 1
    48   26   27 1
    49   26   50 1
    50   26   51 1
    51   27   28 2
    52   27   29 am
    53   29   52 1
    54   29   53 1
@<TRIPOS>MOLECULE
ZINC06904554
   30    31     0     0     0
SMALL
USER_CHARGES
1,2,3,4,4a,5,6,7,8,8a-decahydroquinoline-2-carboxylic acid
@<TRIPOS>ATOM
      1 C1          1.2396    3.6342   -2.4414 C.3       1 <0>        -0.1272
      2 C2          0.5157    4.0669   -1.1648 C.3       1 <0>        -0.1377
      3 C3          1.2750    3.5405    0.0547 C.3       1 <0>        -0.1409
      4 C4          1.3440    2.0133    0.0000 C.3       1 <0>         0.0358
      5 H1          1.8914    1.6414    0.8661 H         1 <0>         0.1323
      6 C5          2.0606    1.5792   -1.2805 C.3       1 <0>        -0.0998
      7 H2          3.0756    1.9767   -1.2830 H         1 <0>         0.1104
      8 C6          1.3014    2.1067   -2.4998 C.3       1 <0>        -0.1344
      9 C7          2.1093    0.0495   -1.3367 C.3       1 <0>        -0.1298
     10 C8          0.6813   -0.5001   -1.2764 C.3       1 <0>        -0.1255
     11 C9          0.0021   -0.0041    0.0020 C.3       1 <0>        -0.0149
     12 H3          0.5544   -0.3645    0.8699 H         1 <0>         0.1345
     13 C10        -1.4108   -0.5256    0.0545 C.2       1 <0>         0.4547
     14 O1         -2.3310    0.1897   -0.2642 O.co2     1 <0>        -0.6186
     15 H4          2.2517    4.0390   -2.4401 H         1 <0>         0.0740
     16 H5          0.6994    4.0095   -3.3105 H         1 <0>         0.0764
     17 H6          0.4712    5.1552   -1.1234 H         1 <0>         0.0867
     18 H7         -0.4962    3.6616   -1.1658 H         1 <0>         0.0627
     19 H8          2.2867    3.9461    0.0555 H         1 <0>         0.1049
     20 H9          0.7595    3.8486    0.9643 H         1 <0>         0.0865
     21 H10         1.8164    1.7985   -3.4097 H         1 <0>         0.0871
     22 H11         0.2893    1.7021   -2.5005 H         1 <0>         0.0656
     23 H12         2.6812   -0.3283   -0.4892 H         1 <0>         0.0794
     24 H13         2.5822   -0.2662   -2.2667 H         1 <0>         0.0893
     25 H14         0.7106   -1.5897   -1.2736 H         1 <0>         0.1106
     26 H15         0.1205   -0.1534   -2.1444 H         1 <0>         0.0831
     27 N1         -0.0278    1.4709    0.0102 N.4       1 <0>        -0.4959
     28 H16        -0.5293    1.8038   -0.8216 H         1 <0>         0.4269
     29 H17        -0.5133    1.7947    0.8550 H         1 <0>         0.4271
     30 O2         -1.6471   -1.7846    0.4554 O.co2     1 <0>        -0.7034
@<TRIPOS>BOND
     1    1    8 1
     2    1    2 1
     3    1   15 1
     4    1   16 1
     5    2    3 1
     6    2   17 1
     7    2   18 1
     8    3    4 1
     9    3   19 1
    10    3   20 1
    11    4    5 1
    12    4    6 1
    13    4   27 1
    14    6    7 1
    15    6    8 1
    16    6    9 1
    17    8   21 1
    18    8   22 1
    19    9   10 1
    20    9   23 1
    21    9   24 1
    22   10   11 1
    23   10   25 1
    24   10   26 1
    25   11   12 1
    26   11   13 1
    27   11   27 1
    28   13   14 2
    29   13   30 1
    30   27   28 1
    31   27   29 1
@<TRIPOS>MOLECULE
ZINC22218539
   30    31     0     0     0
SMALL
USER_CHARGES
(2S,4aR,8aS)-1,2,3,4,4a,5,6,7,8,8a-decahydroquinoline-2-carboxylic acid
@<TRIPOS>ATOM
      1 C1         -2.9058    1.5426    0.0317 C.3       1 <0>        -0.1289
      2 C2         -2.1653    1.0426    1.2736 C.3       1 <0>        -0.1164
      3 C3         -0.7342    1.5784    1.2637 C.3       1 <0>        -0.1385
      4 C4         -0.0127    1.0858    0.0080 C.3       1 <0>         0.0404
      5 H1          0.0485   -0.0125    0.0044 H         1 <0>         0.1248
      6 C5         -0.7526    1.5921   -1.2323 C.3       1 <0>        -0.0999
      7 H2         -0.7789    2.6918   -1.2261 H         1 <0>         0.0918
      8 C6         -2.1842    1.0530   -1.2257 C.3       1 <0>        -0.1129
      9 C7         -0.0243    1.1058   -2.4879 C.3       1 <0>        -0.1305
     10 C8          1.4230    1.6051   -2.4524 C.3       1 <0>        -0.1237
     11 C9          2.1006    1.1035   -1.1754 C.3       1 <0>        -0.0083
     12 H3          2.0975    0.0043   -1.1347 H         1 <0>         0.1276
     13 N1          1.3648    1.5933   -0.0024 N.4       1 <0>        -0.5189
     14 C10         3.5182    1.6126   -1.1270 C.2       1 <0>         0.4559
     15 O1          3.7924    2.5729   -0.4469 O.co2     1 <0>        -0.6187
     16 O2          4.4763    0.9991   -1.8394 O.co2     1 <0>        -0.7058
     17 H4         -2.9283    2.6424    0.0368 H         1 <0>         0.0685
     18 H5         -3.9352    1.1548    0.0382 H         1 <0>         0.0743
     19 H6         -2.6833    1.3972    2.1769 H         1 <0>         0.0797
     20 H7         -2.1450   -0.0572    1.2705 H         1 <0>         0.0717
     21 H8         -0.7544    2.6782    1.2668 H         1 <0>         0.0852
     22 H9         -0.2019    1.2190    2.1567 H         1 <0>         0.0850
     23 H10        -2.1626   -0.0468   -1.2313 H         1 <0>         0.0719
     24 H11        -2.7167    1.4138   -2.1180 H         1 <0>         0.0799
     25 H12        -0.0359    0.0062   -2.5158 H         1 <0>         0.0774
     26 H13        -0.5302    1.5006   -3.3813 H         1 <0>         0.0881
     27 H14         1.9643    1.2232   -3.3306 H         1 <0>         0.1100
     28 H15         1.4319    2.7050   -2.4660 H         1 <0>         0.0824
     29 H16         1.3502    2.6928   -0.0305 H         1 <0>         0.4429
     30 H17         1.8865    1.2566    0.9056 H         1 <0>         0.4450
@<TRIPOS>BOND
     1    1    8 1
     2    1    2 1
     3    1   17 1
     4    1   18 1
     5    2    3 1
     6    2   19 1
     7    2   20 1
     8    3    4 1
     9    3   21 1
    10    3   22 1
    11    4    5 1
    12    4   13 1
    13    4    6 1
    14    6    7 1
    15    6    8 1
    16    6    9 1
    17    8   23 1
    18    8   24 1
    19    9   10 1
    20    9   25 1
    21    9   26 1
    22   10   11 1
    23   10   27 1
    24   10   28 1
    25   11   12 1
    26   11   13 1
    27   11   14 1
    28   13   29 1
    29   13   30 1
    30   14   15 2
    31   14   16 1
@<TRIPOS>MOLECULE
ZINC36677619
   31    31     0     0     0
SMALL
USER_CHARGES

@<TRIPOS>ATOM
      1 C1         -0.0187    1.5258    0.0104 C.3       1 <0>        -0.1466
      2 C2          0.0021   -0.0041    0.0020 C.3       1 <0>         0.0893
      3 H1         -1.0203   -0.3820    0.0097 H         1 <0>         0.0669
      4 C3          0.7204   -0.4987   -1.2562 C.3       1 <0>         0.0260
      5 N1          0.8053   -1.9659   -1.2210 N.3       1 <0>        -0.5382
      6 C4          1.5233   -2.4175   -0.0203 C.3       1 <0>         0.0118
      7 C5          0.7969   -1.9037    1.2256 C.3       1 <0>         0.0653
      8 O1          0.6954   -0.4786    1.1594 O.3       1 <0>        -0.3821
      9 C6          1.4389   -2.4860   -2.4400 C.3       1 <0>         0.0707
     10 C7          1.2870   -4.0078   -2.4843 C.3       1 <0>        -0.0814
     11 H2          1.6884   -4.4398   -1.5676 H         1 <0>         0.1006
     12 C8         -0.1942   -4.3690   -2.6123 C.3       1 <0>        -0.1349
     13 C9          2.0414   -4.5537   -3.6692 C.2       1 <0>         0.2909
     14 S1          2.8325   -3.5598   -4.6403 S.2       1 <0>        -0.4521
     15 N2          2.0492   -5.8797   -3.9103 N.pl3     1 <0>        -0.7785
     16 H3          1.0039    1.9031    0.0027 H         1 <0>         0.0634
     17 H4         -0.5459    1.8868   -0.8726 H         1 <0>         0.0737
     18 H5         -0.5289    1.8773    0.9072 H         1 <0>         0.0668
     19 H6          0.1630   -0.1875   -2.1397 H         1 <0>         0.0882
     20 H7          1.7248   -0.0767   -1.2915 H         1 <0>         0.0468
     21 H8          1.5520   -3.5070   -0.0015 H         1 <0>         0.0831
     22 H9          2.5406   -2.0263   -0.0358 H         1 <0>         0.0456
     23 H10        -0.2021   -2.3374    1.2693 H         1 <0>         0.0587
     24 H11         1.3570   -2.1876    2.1166 H         1 <0>         0.0977
     25 H12         0.9586   -2.0474   -3.3147 H         1 <0>         0.0929
     26 H13         2.4975   -2.2265   -2.4384 H         1 <0>         0.0596
     27 H14        -0.3024   -5.4532   -2.6438 H         1 <0>         0.0510
     28 H15        -0.7399   -3.9742   -1.7552 H         1 <0>         0.0855
     29 H16        -0.5957   -3.9370   -3.5290 H         1 <0>         0.0625
     30 H17         1.5693   -6.4827   -3.3212 H         1 <0>         0.3979
     31 H18         2.5348   -6.2311   -4.6730 H         1 <0>         0.4188
@<TRIPOS>BOND
     1    1    2 1
     2    1   16 1
     3    1   17 1
     4    1   18 1
     5    2    3 1
     6    2    8 1
     7    2    4 1
     8    4    5 1
     9    4   19 1
    10    4   20 1
    11    5    6 1
    12    5    9 1
    13    6    7 1
    14    6   21 1
    15    6   22 1
    16    7    8 1
    17    7   23 1
    18    7   24 1
    19    9   10 1
    20    9   25 1
    21    9   26 1
    22   10   11 1
    23   10   12 1
    24   10   13 1
    25   12   27 1
    26   12   28 1
    27   12   29 1
    28   13   14 2
    29   13   15 1
    30   15   30 1
    31   15   31 1
@<TRIPOS>MOLECULE
ZINC39111964
   22    23     0     0     0
SMALL
USER_CHARGES

@<TRIPOS>ATOM
      1 C1         -0.0188    1.5368    0.0105 C.3       1 <0>        -0.1101
      2 C2          1.4696    1.9501   -0.0015 C.3       1 <0>        -0.1194
      3 H1          1.9102    2.0158    0.9933 H         1 <0>         0.1197
      4 C3          1.6169    3.2468   -0.8271 C.3       1 <0>        -0.1341
      5 C4          1.8718    2.7645   -2.2668 C.3       1 <0>         0.2430
      6 H2          1.1119    3.1717   -2.9338 H         1 <0>         0.1021
      7 O1          1.7961    1.3312   -2.2587 O.3       1 <0>        -0.3679
      8 C5          2.1293    0.8686   -0.9110 C.3       1 <0>         0.0440
      9 H3          3.2030    0.7758   -0.7477 H         1 <0>         0.1148
     10 C6          1.3547   -0.4235   -0.5961 C.3       1 <0>         0.2556
     11 C7          0.0021   -0.0041    0.0020 C.3       1 <0>         0.0732
     12 H4         -0.0899   -0.3841    1.0195 H         1 <0>         0.0927
     13 O2         -1.0659   -0.5033   -0.8056 O.3       1 <0>        -0.5384
     14 F1          1.1500   -1.1548   -1.7711 F         1 <0>        -0.1767
     15 F2          2.0673   -1.1927    0.3300 F         1 <0>        -0.1888
     16 O3          3.1690    3.1824   -2.6964 O.3       1 <0>        -0.5717
     17 H5         -0.5078    1.9049    0.9124 H         1 <0>         0.0949
     18 H6         -0.5249    1.9146   -0.8779 H         1 <0>         0.0956
     19 H7          0.6995    3.8337   -0.7798 H         1 <0>         0.0987
     20 H8          2.4627    3.8325   -0.4672 H         1 <0>         0.0967
     21 H9         -1.1065   -1.4684   -0.8512 H         1 <0>         0.3875
     22 H10         3.3919    2.9098   -3.5970 H         1 <0>         0.3887
@<TRIPOS>BOND
     1    1   11 1
     2    1    2 1
     3    1   17 1
     4    1   18 1
     5    2    3 1
     6    2    8 1
     7    2    4 1
     8    4    5 1
     9    4   19 1
    10    4   20 1
    11    5    6 1
    12    5    7 1
    13    5   16 1
    14    7    8 1
    15    8    9 1
    16    8   10 1
    17   10   11 1
    18   10   14 1
    19   10   15 1
    20   11   12 1
    21   11   13 1
    22   13   21 1
    23   16   22 1
@<TRIPOS>MOLECULE
ZINC45237941
   27    29     0     0     0
SMALL
USER_CHARGES

@<TRIPOS>ATOM
      1 C1         -0.0188    1.5357    0.0105 C.3       1 <0>        -0.0368
      2 C2          1.4119    2.0157   -0.0006 C.2       1 <0>        -0.1320
      3 C3          2.4011    1.3506   -0.5828 C.2       1 <0>        -0.1255
      4 C4          2.1612    0.0706   -1.2807 C.2       1 <0>        -0.0337
      5 C5          1.0174   -0.5426   -0.9975 C.2       1 <0>        -0.1214
      6 C6          0.0021   -0.0041    0.0020 C.3       1 <0>         0.1286
      7 N1         -1.1441   -0.8480    0.2255 N.3       1 <0>        -0.3454
      8 S1         -0.0719   -0.8240    1.6279 S.3       1 <0>        -0.1706
      9 C7         -1.1055   -2.1840   -0.4102 C.3       1 <0>         0.0847
     10 H1         -2.0418   -2.3925   -0.9276 H         1 <0>         0.1545
     11 S2          0.2797   -2.0257   -1.6100 S.3       1 <0>        -0.1325
     12 C8         -0.8087   -3.2690    0.6269 C.3       1 <0>        -0.1135
     13 C9         -0.7754   -4.6357   -0.0601 C.3       1 <0>        -0.1396
     14 C10        -0.4831   -5.7045    0.9614 C.2       1 <0>         0.5194
     15 O1         -0.3176   -5.4027    2.1243 O.2       1 <0>        -0.5383
     16 N2         -0.4054   -6.9955    0.5825 N.am      1 <0>        -0.8559
     17 H2         -0.5213    1.8932    0.9093 H         1 <0>         0.1091
     18 H3         -0.5383    1.9028   -0.8746 H         1 <0>         0.1111
     19 H4          1.6425    2.9491    0.4914 H         1 <0>         0.1340
     20 H5          3.4025    1.7533   -0.5462 H         1 <0>         0.1351
     21 H6          2.8734   -0.3418   -1.9800 H         1 <0>         0.1511
     22 H7          0.1573   -3.0726    1.0921 H         1 <0>         0.1112
     23 H8         -1.5870   -3.2649    1.3900 H         1 <0>         0.0948
     24 H9         -1.7414   -4.8322   -0.5253 H         1 <0>         0.0995
     25 H10         0.0029   -4.6399   -0.8232 H         1 <0>         0.1057
     26 H11        -0.5377   -7.2369   -0.3476 H         1 <0>         0.4027
     27 H12        -0.2173   -7.6835    1.2400 H         1 <0>         0.4036
@<TRIPOS>BOND
     1    1    6 1
     2    1    2 1
     3    1   17 1
     4    1   18 1
     5    2    3 2
     6    2   19 1
     7    3    4 1
     8    3   20 1
     9    4    5 2
    10    4   21 1
    11    5   11 1
    12    5    6 1
    13    6    8 1
    14    6    7 1
    15    7    8 1
    16    7    9 1
    17    9   10 1
    18    9   11 1
    19    9   12 1
    20   12   13 1
    21   12   22 1
    22   12   23 1
    23   13   14 1
    24   13   24 1
    25   13   25 1
    26   14   15 2
    27   14   16 am
    28   16   26 1
    29   16   27 1
@<TRIPOS>MOLECULE
ZINC03289389
   51    53     0     0     0
SMALL
USER_CHARGES
ethyl 2-(2-phenethylaminoacetyl)amino-4-(2-thienyl)thiophene-3-carboxylate
@<TRIPOS>ATOM
      1 C1         -1.8815    3.6558   -5.3583 C.3       1 <0>        -0.1532
      2 C2         -2.6607    3.6272   -4.0419 C.3       1 <0>         0.0569
      3 O1         -2.0619    4.5343   -3.1142 O.3       1 <0>        -0.3419
      4 C3         -2.6326    4.6296   -1.8955 C.2       1 <0>         0.5207
      5 O2         -3.6126    3.9598   -1.6288 O.2       1 <0>        -0.4756
      6 C4         -2.0734    5.5379   -0.8952 C.2       1 <0>        -0.1650
      7 C5         -1.0505    5.1049    0.0391 C.2       1 <0>         0.0131
      8 C6         -0.6062    6.0310    0.9295 C.2       1 <0>        -0.1867
      9 S1         -1.5464    7.4844    0.5124 S.3       1 <0>         0.2716
     10 C7         -2.4947    6.8573   -0.7928 C.2       1 <0>         0.0423
     11 N1         -3.4474    7.5151   -1.5543 N.am      1 <0>        -0.5949
     12 C8         -3.7290    8.8102   -1.3095 C.2       1 <0>         0.4950
     13 O3         -3.1485    9.3999   -0.4227 O.2       1 <0>        -0.4915
     14 C9         -4.7650    9.5256   -2.1376 C.3       1 <0>        -0.0164
     15 C10        -5.8895   11.6451   -2.4631 C.3       1 <0>        -0.0014
     16 C11        -5.9870   13.0850   -1.9550 C.3       1 <0>        -0.1005
     17 C12        -7.0164   13.8338   -2.7616 C.ar      1 <0>        -0.1111
     18 C13        -6.6384   14.5132   -3.9046 C.ar      1 <0>        -0.1093
     19 C14        -7.5835   15.1960   -4.6472 C.ar      1 <0>        -0.1143
     20 C15        -8.9049   15.2077   -4.2413 C.ar      1 <0>        -0.1027
     21 C16        -9.2819   14.5330   -3.0952 C.ar      1 <0>        -0.1142
     22 C17        -8.3377   13.8458   -2.3555 C.ar      1 <0>        -0.1093
     23 C18        -0.5229    3.7247    0.0271 C.2       1 <0>        -0.1321
     24 C19         0.7785    3.2984    0.0124 C.2       1 <0>        -0.1203
     25 C20         1.0311    1.9429    0.0026 C.2       1 <0>        -0.1623
     26 C21        -0.0126    1.0758    0.0080 C.2       1 <0>        -0.1623
     27 S2         -1.4161    2.1788    0.0194 S.3       1 <0>         0.0713
     28 H1         -2.3382    2.9639   -6.0660 H         1 <0>         0.0850
     29 H2         -1.9026    4.6643   -5.7712 H         1 <0>         0.0654
     30 H3         -0.8486    3.3595   -5.1756 H         1 <0>         0.0699
     31 H4         -2.6396    2.6187   -3.6290 H         1 <0>         0.0739
     32 H5         -3.6936    3.9235   -4.2246 H         1 <0>         0.0687
     33 H6          0.1386    5.9138    1.7027 H         1 <0>         0.2045
     34 H7         -3.9116    7.0435   -2.2635 H         1 <0>         0.4283
     35 H8         -4.4635    9.5152   -3.1850 H         1 <0>         0.1702
     36 H9         -5.7261    9.0225   -2.0311 H         1 <0>         0.1701
     37 H10        -5.5958   11.6493   -3.5128 H         1 <0>         0.1370
     38 H11        -6.8584   11.1567   -2.3588 H         1 <0>         0.1370
     39 H12        -6.2806   13.0808   -0.9053 H         1 <0>         0.0982
     40 H13        -5.0181   13.5734   -2.0593 H         1 <0>         0.0982
     41 H14        -5.6053   14.5074   -4.2195 H         1 <0>         0.1248
     42 H15        -7.2889   15.7234   -5.5424 H         1 <0>         0.1298
     43 H16        -9.6427   15.7443   -4.8194 H         1 <0>         0.1301
     44 H17       -10.3142   14.5424   -2.7779 H         1 <0>         0.1299
     45 H18        -8.6322   13.3187   -1.4601 H         1 <0>         0.1248
     46 H19         1.5910    4.0099    0.0081 H         1 <0>         0.1388
     47 H20         2.0468    1.5760   -0.0094 H         1 <0>         0.1413
     48 H21         0.0021   -0.0041    0.0020 H         1 <0>         0.1910
     49 N2         -4.8803   10.9194   -1.6688 N.4       1 <0>        -0.5073
     50 H22        -3.9713   11.3865   -1.7680 H         1 <0>         0.4421
     51 H23        -5.1606   10.9224   -0.6810 H         1 <0>         0.4422
@<TRIPOS>BOND
     1    1    2 1
     2    1   28 1
     3    1   29 1
     4    1   30 1
     5    2    3 1
     6    2   31 1
     7    2   32 1
     8    3    4 1
     9    4    5 2
    10    4    6 1
    11    6   10 2
    12    6    7 1
    13    7    8 2
    14    7   23 1
    15    8    9 1
    16    8   33 1
    17    9   10 1
    18   10   11 1
    19   11   12 am
    20   11   34 1
    21   12   13 2
    22   12   14 1
    23   14   35 1
    24   14   36 1
    25   14   49 1
    26   15   16 1
    27   15   37 1
    28   15   38 1
    29   15   49 1
    30   16   17 1
    31   16   39 1
    32   16   40 1
    33   17   22 ar
    34   17   18 ar
    35   18   19 ar
    36   18   41 1
    37   19   20 ar
    38   19   42 1
    39   20   21 ar
    40   20   43 1
    41   21   22 ar
    42   21   44 1
    43   22   45 1
    44   23   27 1
    45   23   24 2
    46   24   25 1
    47   24   46 1
    48   25   26 2
    49   25   47 1
    50   26   27 1
    51   26   48 1
    52   49   50 1
    53   49   51 1
@<TRIPOS>MOLECULE
ZINC21262900
   65    67     0     0     0
SMALL
USER_CHARGES
1-[(4-methoxyphenyl)methyl]-1-(2-pyridylmethyl)-3-(2,2,6,6-tetramethyl-4-piperidyl)thiourea
@<TRIPOS>ATOM
      1 C1          6.6928    5.0177    1.5227 C.3       1 <0>        -0.1807
      2 C2          6.2273    5.5582    0.1654 C.3       1 <0>         0.0762
      3 C3          4.7562    5.2090   -0.0455 C.3       1 <0>        -0.1420
      4 C4          3.8665    6.1142    0.8060 C.3       1 <0>         0.1402
      5 C5          4.1094    7.5646    0.3899 C.3       1 <0>        -0.1411
      6 C6          5.5725    7.9419    0.6085 C.3       1 <0>         0.0569
      7 N1          6.4946    6.9765    0.0478 N.4       1 <0>        -0.5144
      8 C7          5.8302    8.1495    2.1057 C.3       1 <0>        -0.1745
      9 C8          5.8121    9.2995   -0.0891 C.3       1 <0>        -0.1786
     10 N2          2.4587    5.7718    0.5670 N.pl3     1 <0>        -0.7057
     11 C9          1.5317    6.0357    1.5091 C.2       1 <0>         0.5679
     12 S1          1.9956    6.7701    2.9844 S.2       1 <0>        -0.6308
     13 N3          0.2396    5.7215    1.2897 N.pl3     1 <0>        -0.5428
     14 C10        -0.7680    6.0084    2.3138 C.3       1 <0>         0.1501
     15 C11        -0.9819    4.7834    3.1651 C.ar      1 <0>        -0.1553
     16 C12        -1.9271    3.8437    2.7973 C.ar      1 <0>        -0.0635
     17 C13        -2.1210    2.7172    3.5730 C.ar      1 <0>        -0.2153
     18 C14        -1.3744    2.5348    4.7280 C.ar      1 <0>         0.1404
     19 C15        -0.4306    3.4819    5.0979 C.ar      1 <0>        -0.1587
     20 C16        -0.2365    4.6040    4.3158 C.ar      1 <0>        -0.0476
     21 O1         -1.5670    1.4299    5.4955 O.3       1 <0>        -0.3159
     22 C17        -2.5552    0.4972    5.0536 C.3       1 <0>         0.0224
     23 C18        -0.1573    5.0932    0.0273 C.3       1 <0>         0.1410
     24 C19        -0.5305    6.1601   -0.9694 C.ar      1 <0>         0.0990
     25 C20         0.4150    6.6152   -1.8692 C.ar      1 <0>        -0.1651
     26 C21         0.0600    7.5931   -2.7854 C.ar      1 <0>        -0.0691
     27 C22        -1.2355    8.0868   -2.7550 C.ar      1 <0>        -0.1591
     28 C23        -2.1262    7.5838   -1.8260 C.ar      1 <0>         0.1128
     29 N4         -1.7550    6.6492   -0.9728 N.ar      1 <0>        -0.4642
     30 C24         7.0406    4.8223   -0.9227 C.3       1 <0>        -0.1781
     31 H1          6.4769    3.9407    1.5821 H         1 <0>         0.1040
     32 H2          6.1602    5.5434    2.3289 H         1 <0>         0.0859
     33 H3          7.7752    5.1812    1.6308 H         1 <0>         0.0851
     34 H4          4.4954    5.3449   -1.1055 H         1 <0>         0.0910
     35 H5          4.5828    4.1619    0.2434 H         1 <0>         0.1146
     36 H6          4.0624    5.9698    1.8787 H         1 <0>         0.1348
     37 H7          3.8628    7.6867   -0.6751 H         1 <0>         0.0833
     38 H8          3.4736    8.2302    0.9921 H         1 <0>         0.1228
     39 H9          7.4512    7.2112    0.5376 H         1 <0>         0.4475
     40 H10         6.8846    8.4213    2.2620 H         1 <0>         0.0788
     41 H11         5.6069    7.2192    2.6486 H         1 <0>         0.0856
     42 H12         5.1840    8.9569    2.4805 H         1 <0>         0.1069
     43 H13         6.8604    9.6027    0.0489 H         1 <0>         0.0845
     44 H14         5.1496   10.0596    0.3506 H         1 <0>         0.1073
     45 H15         5.5968    9.2027   -1.1635 H         1 <0>         0.0794
     46 H16         2.1607    5.2999   -0.3809 H         1 <0>         0.4137
     47 H17        -0.4215    6.8388    2.9466 H         1 <0>         0.1259
     48 H18        -1.7149    6.2876    1.8285 H         1 <0>         0.1004
     49 H19        -2.5111    3.9884    1.9004 H         1 <0>         0.1231
     50 H20        -2.8564    1.9813    3.2829 H         1 <0>         0.1291
     51 H21         0.1516    3.3424    5.9968 H         1 <0>         0.1314
     52 H22         0.4983    5.3414    4.6031 H         1 <0>         0.1490
     53 H23        -2.6082   -0.3435    5.7610 H         1 <0>         0.1051
     54 H24        -2.2840    0.1207    4.0563 H         1 <0>         0.0563
     55 H25        -3.5341    0.9964    5.0033 H         1 <0>         0.0590
     56 H26         0.6814    4.5005   -0.3668 H         1 <0>         0.0924
     57 H27        -1.0216    4.4353    0.2010 H         1 <0>         0.1194
     58 H28         1.4163    6.2105   -1.8618 H         1 <0>         0.1211
     59 H29         0.7765    7.9646   -3.5031 H         1 <0>         0.1377
     60 H30        -1.5457    8.8516   -3.4516 H         1 <0>         0.1429
     61 H31        -3.1382    7.9600   -1.7986 H         1 <0>         0.1651
     62 H32         6.7350    5.1833   -1.9158 H         1 <0>         0.0801
     63 H33         6.8531    3.7407   -0.8520 H         1 <0>         0.1053
     64 H34         8.1127    5.0190   -0.7750 H         1 <0>         0.0855
     65 H35         6.5498    7.2523   -1.0156 H         1 <0>         0.4415
@<TRIPOS>BOND
     1    1    2 1
     2    1   31 1
     3    1   32 1
     4    1   33 1
     5    2    7 1
     6    2    3 1
     7    2   30 1
     8    3    4 1
     9    3   34 1
    10    3   35 1
    11    4    5 1
    12    4   10 1
    13    4   36 1
    14    5    6 1
    15    5   37 1
    16    5   38 1
    17    6    7 1
    18    6    8 1
    19    6    9 1
    20    7   39 1
    21    7   65 1
    22    8   40 1
    23    8   41 1
    24    8   42 1
    25    9   43 1
    26    9   44 1
    27    9   45 1
    28   10   11 1
    29   10   46 1
    30   11   12 2
    31   11   13 1
    32   13   14 1
    33   13   23 1
    34   14   15 1
    35   14   47 1
    36   14   48 1
    37   15   20 ar
    38   15   16 ar
    39   16   17 ar
    40   16   49 1
    41   17   18 ar
    42   17   50 1
    43   18   19 ar
    44   18   21 1
    45   19   20 ar
    46   19   51 1
    47   20   52 1
    48   21   22 1
    49   22   53 1
    50   22   54 1
    51   22   55 1
    52   23   24 1
    53   23   56 1
    54   23   57 1
    55   24   29 ar
    56   24   25 ar
    57   25   26 ar
    58   25   58 1
    59   26   27 ar
    60   26   59 1
    61   27   28 ar
    62   27   60 1
    63   28   29 ar
    64   28   61 1
    65   30   62 1
    66   30   63 1
    67   30   64 1
@<TRIPOS>MOLECULE
ZINC38547607
   53    56     0     0     0
SMALL
USER_CHARGES

@<TRIPOS>ATOM
      1 C1         -0.0184    1.5028    0.0103 C.3       1 <0>        -0.1427
      2 C2          0.0021   -0.0041    0.0020 C.ar      1 <0>         0.1867
      3 C3          0.0055   -0.6789   -1.2025 C.ar      1 <0>        -0.1731
      4 C4          0.0244   -2.0671   -1.2042 C.ar      1 <0>         0.0451
      5 C5          0.0391   -2.7287    0.0107 C.ar      1 <0>        -0.2064
      6 C6          0.0346   -1.9849    1.1860 C.ar      1 <0>         0.4501
      7 N1          0.0219   -0.6613    1.1459 N.ar      1 <0>        -0.5044
      8 N2          0.0488   -2.6368    2.4137 N.pl3     1 <0>        -0.6964
      9 C7          0.0685   -4.1007    2.4656 C.3       1 <0>         0.2614
     10 H1         -0.5194   -4.5015    1.6399 H         1 <0>         0.1279
     11 C8          1.4900   -4.5883    2.3532 C.ar      1 <0>         0.0925
     12 C9          1.8743   -5.3245    1.2482 C.ar      1 <0>        -0.1560
     13 C10         3.1843   -5.7682    1.1546 C.ar      1 <0>        -0.0642
     14 C11         4.0627   -5.4536    2.1804 C.ar      1 <0>        -0.1533
     15 C12         3.6064   -4.7134    3.2543 C.ar      1 <0>         0.1095
     16 N3          2.3541   -4.3032    3.3075 N.ar      1 <0>        -0.4731
     17 C13        -0.5199   -4.5649    3.7730 C.2       1 <0>        -0.1876
     18 C14        -1.4268   -5.6083    3.8058 C.2       1 <0>        -0.1026
     19 C15        -1.9361   -6.0009    4.9981 C.2       1 <0>        -0.1741
     20 S1         -1.1315   -4.8831    6.1337 S.3       1 <0>         0.1863
     21 C16        -0.1637   -3.9679    4.9450 C.2       1 <0>         0.0928
     22 N4          0.7255   -2.9131    5.1600 N.am      1 <0>        -0.6117
     23 C17         0.9446   -2.4607    6.4106 C.2       1 <0>         0.6012
     24 O1          0.3673   -2.9717    7.3525 O.2       1 <0>        -0.4730
     25 C18         1.8784   -1.3530    6.6364 C.2       1 <0>        -0.0986
     26 C19         2.1947   -0.8041    7.8461 C.2       1 <0>        -0.0908
     27 C20         3.1208    0.2203    7.5946 C.2       1 <0>        -0.2181
     28 C21         3.3267    0.2515    6.2595 C.2       1 <0>         0.0058
     29 O2          2.5801   -0.7014    5.6860 O.3       1 <0>        -0.1742
     30 C22        -2.9270   -7.0981    5.2904 C.3       1 <0>        -0.0717
     31 C23        -1.8431   -6.2989    2.5327 C.3       1 <0>        -0.1028
     32 H2          1.0042    1.8801    0.0026 H         1 <0>         0.1142
     33 H3         -0.5455    1.8639   -0.8728 H         1 <0>         0.1189
     34 H4         -0.5286    1.8543    0.9071 H         1 <0>         0.0945
     35 H5         -0.0067   -0.1323   -2.1339 H         1 <0>         0.1816
     36 H6          0.0271   -2.6181   -2.1331 H         1 <0>         0.1770
     37 H7          0.0536   -3.8080    0.0460 H         1 <0>         0.1748
     38 H8          0.0458   -2.1223    3.2361 H         1 <0>         0.4113
     39 H9          1.1630   -5.5513    0.4679 H         1 <0>         0.1376
     40 H10         3.5129   -6.3456    0.3030 H         1 <0>         0.1446
     41 H11         5.0904   -5.7832    2.1407 H         1 <0>         0.1441
     42 H12         4.2842   -4.4642    4.0573 H         1 <0>         0.1610
     43 H13         1.1856   -2.5059    4.4094 H         1 <0>         0.4160
     44 H14         1.8071   -1.1004    8.8096 H         1 <0>         0.1676
     45 H15         3.5819    0.8631    8.3300 H         1 <0>         0.1655
     46 H16         3.9874    0.9302    5.7407 H         1 <0>         0.2165
     47 H17        -2.3932   -8.0312    5.4708 H         1 <0>         0.0823
     48 H18        -3.5093   -6.8359    6.1737 H         1 <0>         0.0765
     49 H19        -3.5952   -7.2207    4.4380 H         1 <0>         0.0835
     50 H20        -1.1705   -7.1337    2.3355 H         1 <0>         0.0747
     51 H21        -2.8624   -6.6704    2.6375 H         1 <0>         0.0773
     52 H22        -1.7974   -5.5920    1.7043 H         1 <0>         0.0584
     53 H23         0.0233   -0.1628    1.9780 H         1 <0>         0.4378
@<TRIPOS>BOND
     1    1    2 1
     2    1   32 1
     3    1   33 1
     4    1   34 1
     5    2    7 ar
     6    2    3 ar
     7    3    4 ar
     8    3   35 1
     9    4    5 ar
    10    4   36 1
    11    5    6 ar
    12    5   37 1
    13    6    7 ar
    14    6    8 1
    15    7   53 1
    16    8    9 1
    17    8   38 1
    18    9   10 1
    19    9   11 1
    20    9   17 1
    21   11   16 ar
    22   11   12 ar
    23   12   13 ar
    24   12   39 1
    25   13   14 ar
    26   13   40 1
    27   14   15 ar
    28   14   41 1
    29   15   16 ar
    30   15   42 1
    31   17   21 2
    32   17   18 1
    33   18   19 2
    34   18   31 1
    35   19   20 1
    36   19   30 1
    37   20   21 1
    38   21   22 1
    39   22   23 am
    40   22   43 1
    41   23   24 2
    42   23   25 1
    43   25   29 1
    44   25   26 2
    45   26   27 1
    46   26   44 1
    47   27   28 2
    48   27   45 1
    49   28   29 1
    50   28   46 1
    51   30   47 1
    52   30   48 1
    53   30   49 1
    54   31   50 1
    55   31   51 1
    56   31   52 1
@<TRIPOS>MOLECULE
ZINC39658482
   72    75     0     0     0
SMALL
USER_CHARGES

@<TRIPOS>ATOM
      1 C1          0.7501   -0.7078   -1.0155 C.3       1 <0>        -0.1495
      2 C2         -0.0697    0.0186    0.0527 C.3       1 <0>        -0.0735
      3 C3          0.4904   -0.3118    1.4376 C.3       1 <0>        -0.0954
      4 C4         -0.3294    0.4146    2.5059 C.3       1 <0>        -0.1298
      5 C5         -0.2502    1.9243    2.2706 C.3       1 <0>        -0.1231
      6 C6         -0.8104    2.2546    0.8856 C.3       1 <0>        -0.1208
      7 C7          0.0094    1.5283   -0.1826 C.3       1 <0>        -0.1181
      8 C8         -1.5069   -0.4277   -0.0274 C.2       1 <0>         0.5573
      9 O1         -1.9898   -1.0818    0.8725 O.2       1 <0>        -0.5239
     10 N1         -2.2556   -0.0998   -1.0990 N.am      1 <0>        -0.6213
     11 C9         -1.8195    0.5939   -2.3338 C.3       1 <0>         0.1015
     12 C10        -2.5787   -0.1226   -3.4730 C.3       1 <0>        -0.1143
     13 H1         -1.9568   -0.9032   -3.9113 H         1 <0>         0.1104
     14 C11        -3.8132   -0.7395   -2.7945 C.3       1 <0>        -0.0708
     15 C12        -3.7000   -0.3575   -1.3116 C.3       1 <0>         0.1062
     16 C13        -3.7955   -2.2576   -2.9448 C.3       1 <0>        -0.1335
     17 C14        -5.0612   -2.8432   -2.3122 C.3       1 <0>        -0.0111
     18 N2         -6.2455   -2.2798   -2.9717 N.4       1 <0>        -0.5044
     19 C15        -6.3042   -0.8310   -2.7437 C.3       1 <0>        -0.0078
     20 C16        -5.0909   -0.1603   -3.3941 C.3       1 <0>        -0.1467
     21 C17        -2.9973    0.8680   -4.5287 C.2       1 <0>         0.5205
     22 O2         -3.2935    2.0011   -4.2137 O.2       1 <0>        -0.5164
     23 N3         -3.0425    0.4947   -5.8230 N.am      1 <0>        -0.7260
     24 C18        -3.4495    1.4577   -6.8493 C.3       1 <0>         0.1349
     25 C19        -3.4156    0.7842   -8.2226 C.3       1 <0>        -0.1154
     26 S1         -3.9196    1.9765   -9.4934 S.3       1 <0>        -0.2214
     27 C20        -3.8273    1.0341  -11.0407 C.3       1 <0>        -0.0414
     28 C21        -4.2266    1.9197  -12.1928 C.ar      1 <0>        -0.0855
     29 C22        -5.5513    1.9939  -12.5808 C.ar      1 <0>        -0.0998
     30 C23        -5.9175    2.8063  -13.6376 C.ar      1 <0>        -0.1196
     31 C24        -4.9591    3.5447  -14.3062 C.ar      1 <0>        -0.1079
     32 C25        -3.6345    3.4712  -13.9176 C.ar      1 <0>        -0.1183
     33 C26        -3.2689    2.6622  -12.8580 C.ar      1 <0>        -0.0985
     34 H2          1.7540   -0.2849   -1.0531 H         1 <0>         0.0760
     35 H3          0.8114   -1.7676   -0.7683 H         1 <0>         0.0652
     36 H4          0.2690   -0.5884   -1.9863 H         1 <0>         0.0604
     37 H5          0.4340   -1.3873    1.6053 H         1 <0>         0.0705
     38 H6          1.5299    0.0110    1.4956 H         1 <0>         0.0735
     39 H7         -1.3689    0.0919    2.4480 H         1 <0>         0.0781
     40 H8          0.0697    0.1793    3.4926 H         1 <0>         0.0648
     41 H9         -0.8343    2.4418    3.0316 H         1 <0>         0.0633
     42 H10         0.7893    2.2470    2.3285 H         1 <0>         0.0645
     43 H11        -1.8499    1.9319    0.8277 H         1 <0>         0.0554
     44 H12        -0.7540    3.3302    0.7180 H         1 <0>         0.0686
     45 H13         1.0489    1.8510   -0.1247 H         1 <0>         0.0801
     46 H14        -0.3896    1.7636   -1.1693 H         1 <0>         0.0706
     47 H15        -2.0969    1.6473   -2.2961 H         1 <0>         0.1000
     48 H16        -0.7431    0.4881   -2.4692 H         1 <0>         0.1035
     49 H17        -4.0365   -1.1804   -0.6809 H         1 <0>         0.0887
     50 H18        -4.2810    0.5418   -1.1073 H         1 <0>         0.0832
     51 H19        -3.7634   -2.5182   -4.0027 H         1 <0>         0.0951
     52 H20        -2.9169   -2.6627   -2.4427 H         1 <0>         0.1180
     53 H21        -5.0595   -3.9265   -2.4326 H         1 <0>         0.1395
     54 H22        -5.0845   -2.5960   -1.2509 H         1 <0>         0.1345
     55 H23        -6.1950   -2.4611   -3.9630 H         1 <0>         0.4270
     56 H24        -7.2185   -0.4311   -3.1820 H         1 <0>         0.1394
     57 H25        -6.2982   -0.6315   -1.6721 H         1 <0>         0.1335
     58 H26        -5.1257    0.9133   -3.2088 H         1 <0>         0.1283
     59 H27        -5.1052   -0.3454   -4.4682 H         1 <0>         0.0947
     60 H28        -2.8056   -0.4115   -6.0749 H         1 <0>         0.4011
     61 H29        -4.4610    1.8058   -6.6401 H         1 <0>         0.0816
     62 H30        -2.7648    2.3058   -6.8436 H         1 <0>         0.0845
     63 H31        -2.4041    0.4360   -8.4318 H         1 <0>         0.0896
     64 H32        -4.1003   -0.0640   -8.2283 H         1 <0>         0.0852
     65 H33        -2.8072    0.6807  -11.1906 H         1 <0>         0.0923
     66 H34        -4.5033    0.1807  -10.9872 H         1 <0>         0.0906
     67 H35        -6.3001    1.4170  -12.0584 H         1 <0>         0.1227
     68 H36        -6.9524    2.8637  -13.9412 H         1 <0>         0.1265
     69 H37        -5.2451    4.1788  -15.1323 H         1 <0>         0.1266
     70 H38        -2.8857    4.0479  -14.4402 H         1 <0>         0.1274
     71 H39        -2.2346    2.6076  -12.5521 H         1 <0>         0.1245
     72 H40        -7.0759   -2.7121   -2.5953 H         1 <0>         0.4343
@<TRIPOS>BOND
     1    1    2 1
     2    1   34 1
     3    1   35 1
     4    1   36 1
     5    2    7 1
     6    2    3 1
     7    2    8 1
     8    3    4 1
     9    3   37 1
    10    3   38 1
    11    4    5 1
    12    4   39 1
    13    4   40 1
    14    5    6 1
    15    5   41 1
    16    5   42 1
    17    6    7 1
    18    6   43 1
    19    6   44 1
    20    7   45 1
    21    7   46 1
    22    8    9 2
    23    8   10 am
    24   10   15 1
    25   10   11 1
    26   11   12 1
    27   11   47 1
    28   11   48 1
    29   12   13 1
    30   12   14 1
    31   12   21 1
    32   14   20 1
    33   14   15 1
    34   14   16 1
    35   15   49 1
    36   15   50 1
    37   16   17 1
    38   16   51 1
    39   16   52 1
    40   17   18 1
    41   17   53 1
    42   17   54 1
    43   18   19 1
    44   18   55 1
    45   18   72 1
    46   19   20 1
    47   19   56 1
    48   19   57 1
    49   20   58 1
    50   20   59 1
    51   21   22 2
    52   21   23 am
    53   23   24 1
    54   23   60 1
    55   24   25 1
    56   24   61 1
    57   24   62 1
    58   25   26 1
    59   25   63 1
    60   25   64 1
    61   26   27 1
    62   27   28 1
    63   27   65 1
    64   27   66 1
    65   28   33 ar
    66   28   29 ar
    67   29   30 ar
    68   29   67 1
    69   30   31 ar
    70   30   68 1
    71   31   32 ar
    72   31   69 1
    73   32   33 ar
    74   32   70 1
    75   33   71 1
@<TRIPOS>MOLECULE
ZINC46757151
   64    66     0     0     0
SMALL
USER_CHARGES

@<TRIPOS>ATOM
      1 C1         -1.7792   -3.0753   -1.1157 C.3       1 <0>        -0.1851
      2 C2         -0.9395   -2.0266   -0.3836 C.3       1 <0>         0.0193
      3 C3         -1.8619   -1.0924    0.4021 C.3       1 <0>        -0.1859
      4 N1         -0.0174   -2.6972    0.5428 N.4       1 <0>        -0.3864
      5 C4          0.8683   -3.5941   -0.2115 C.3       1 <0>        -0.0595
      6 C5          0.7888   -1.6902    1.2457 C.3       1 <0>         0.0309
      7 C6          1.6474   -2.3683    2.2821 C.ar      1 <0>        -0.1403
      8 C7          2.9724   -2.6496    2.0055 C.ar      1 <0>        -0.0919
      9 C8          3.7599   -3.2715    2.9560 C.ar      1 <0>        -0.1008
     10 C9          3.2226   -3.6119    4.1836 C.ar      1 <0>        -0.0842
     11 C10         1.8982   -3.3298    4.4605 C.ar      1 <0>        -0.0903
     12 C11         1.1116   -2.7039    3.5112 C.ar      1 <0>        -0.0920
     13 C12        -0.3310   -2.3917    3.8150 C.3       1 <0>         0.1419
     14 N2         -1.1875   -3.4310    3.2385 N.am      1 <0>        -0.7434
     15 C13        -2.5284   -3.3080    3.2963 C.2       1 <0>         0.5038
     16 O1         -3.0260   -2.3368    3.8256 O.2       1 <0>        -0.5022
     17 C14        -3.4094   -4.3772    2.7033 C.3       1 <0>         0.0981
     18 N3         -4.8154   -4.0123    2.8933 N.am      1 <0>        -0.7222
     19 C15        -5.7899   -4.8255    2.4400 C.2       1 <0>         0.5694
     20 O2         -5.5021   -5.8619    1.8734 O.2       1 <0>        -0.5313
     21 C16        -7.2077   -4.4576    2.6316 C.ar      1 <0>        -0.1491
     22 C17        -7.5389   -3.2639    3.2775 C.ar      1 <0>        -0.0781
     23 C18        -8.8605   -2.9218    3.4552 C.ar      1 <0>        -0.1214
     24 C19        -9.8688   -3.7665    2.9905 C.ar      1 <0>        -0.0024
     25 C20        -9.5392   -4.9589    2.3457 C.ar      1 <0>        -0.1211
     26 C21        -8.2182   -5.3002    2.1619 C.ar      1 <0>        -0.0487
     27 C22       -11.2919   -3.3969    3.1824 C.ar      1 <0>        -0.0650
     28 C23       -11.6248   -2.2036    3.8214 C.ar      1 <0>        -0.1040
     29 C24       -12.9510   -1.8646    3.9968 C.ar      1 <0>        -0.1186
     30 C25       -13.9491   -2.7064    3.5398 C.ar      1 <0>        -0.1082
     31 C26       -13.6247   -3.8918    2.9049 C.ar      1 <0>        -0.1178
     32 C27       -12.3019   -4.2387    2.7192 C.ar      1 <0>        -0.1031
     33 H1         -2.3504   -3.6545   -0.3901 H         1 <0>         0.0768
     34 H2         -2.4633   -2.5778   -1.8030 H         1 <0>         0.1096
     35 H3         -1.1220   -3.7409   -1.6753 H         1 <0>         0.0858
     36 H4         -0.3682   -1.4475   -1.1091 H         1 <0>         0.1419
     37 H5         -2.4332   -1.6715    1.1276 H         1 <0>         0.0758
     38 H6         -1.2637   -0.3452    0.9236 H         1 <0>         0.0826
     39 H7         -2.5461   -0.5948   -0.2853 H         1 <0>         0.1103
     40 H8          1.3705   -3.0315   -0.9984 H         1 <0>         0.1272
     41 H9          1.6121   -4.0207    0.4615 H         1 <0>         0.1247
     42 H10         0.2794   -4.3958   -0.6572 H         1 <0>         0.1271
     43 H11         1.4256   -1.1704    0.5300 H         1 <0>         0.1411
     44 H12         0.1292   -0.9725    1.7334 H         1 <0>         0.1394
     45 H13         3.3921   -2.3837    1.0466 H         1 <0>         0.1367
     46 H14         4.7948   -3.4918    2.7397 H         1 <0>         0.1403
     47 H15         3.8377   -4.0984    4.9261 H         1 <0>         0.1405
     48 H16         1.4784   -3.5960    5.4193 H         1 <0>         0.1396
     49 H17        -0.4761   -2.3589    4.8948 H         1 <0>         0.0977
     50 H18        -0.5922   -1.4252    3.3839 H         1 <0>         0.0890
     51 H19        -0.7895   -4.2078    2.8152 H         1 <0>         0.3998
     52 H20        -3.1993   -4.4715    1.6379 H         1 <0>         0.0962
     53 H21        -3.2106   -5.3277    3.1983 H         1 <0>         0.1099
     54 H22        -5.0451   -3.1853    3.3454 H         1 <0>         0.4142
     55 H23        -6.7585   -2.6100    3.6377 H         1 <0>         0.1275
     56 H24        -9.1168   -1.9992    3.9548 H         1 <0>         0.1348
     57 H25       -10.3205   -5.6123    1.9867 H         1 <0>         0.1367
     58 H26        -7.9632   -6.2212    1.6588 H         1 <0>         0.1402
     59 H27       -10.8464   -1.5458    4.1789 H         1 <0>         0.1263
     60 H28       -13.2101   -0.9405    4.4921 H         1 <0>         0.1276
     61 H29       -14.9856   -2.4372    3.6796 H         1 <0>         0.1268
     62 H30       -14.4081   -4.5453    2.5505 H         1 <0>         0.1282
     63 H31       -12.0498   -5.1625    2.2198 H         1 <0>         0.1275
     64 H32        -0.5462   -3.2333    1.2144 H         1 <0>         0.4078
@<TRIPOS>BOND
     1    1    2 1
     2    1   33 1
     3    1   34 1
     4    1   35 1
     5    2    3 1
     6    2    4 1
     7    2   36 1
     8    3   37 1
     9    3   38 1
    10    3   39 1
    11    4    5 1
    12    4    6 1
    13    4   64 1
    14    5   40 1
    15    5   41 1
    16    5   42 1
    17    6    7 1
    18    6   43 1
    19    6   44 1
    20    7   12 ar
    21    7    8 ar
    22    8    9 ar
    23    8   45 1
    24    9   10 ar
    25    9   46 1
    26   10   11 ar
    27   10   47 1
    28   11   12 ar
    29   11   48 1
    30   12   13 1
    31   13   14 1
    32   13   49 1
    33   13   50 1
    34   14   15 am
    35   14   51 1
    36   15   16 2
    37   15   17 1
    38   17   18 1
    39   17   52 1
    40   17   53 1
    41   18   19 am
    42   18   54 1
    43   19   20 2
    44   19   21 1
    45   21   26 ar
    46   21   22 ar
    47   22   23 ar
    48   22   55 1
    49   23   24 ar
    50   23   56 1
    51   24   25 ar
    52   24   27 1
    53   25   26 ar
    54   25   57 1
    55   26   58 1
    56   27   32 ar
    57   27   28 ar
    58   28   29 ar
    59   28   59 1
    60   29   30 ar
    61   29   60 1
    62   30   31 ar
    63   30   61 1
    64   31   32 ar
    65   31   62 1
    66   32   63 1
@<TRIPOS>MOLECULE
ZINC07690588
   53    55     0     0     0
SMALL
USER_CHARGES
2-[2-(benzothiazol-2-ylmethyl-methyl-amino)acetyl]amino-N-(2-ethylphenyl)-acetamide
@<TRIPOS>ATOM
      1 C1         -3.9344    1.4481  -10.8388 C.3       1 <0>        -0.1512
      2 C2         -3.6150   -0.0040  -10.4778 C.3       1 <0>        -0.0887
      3 C3         -2.1293   -0.2329  -10.5838 C.ar      1 <0>        -0.1052
      4 C4         -1.5905   -0.7493  -11.7462 C.ar      1 <0>        -0.0965
      5 C5         -0.2274   -0.9588  -11.8445 C.ar      1 <0>        -0.1246
      6 C6          0.6009   -0.6522  -10.7802 C.ar      1 <0>        -0.1040
      7 C7          0.0691   -0.1311   -9.6172 C.ar      1 <0>        -0.1254
      8 C8         -1.3005    0.0755   -9.5133 C.ar      1 <0>         0.1356
      9 N1         -1.8431    0.5988   -8.3345 N.am      1 <0>        -0.6562
     10 C9         -1.1905    0.4439   -7.1655 C.2       1 <0>         0.5070
     11 O1         -0.1856   -0.2335   -7.1170 O.2       1 <0>        -0.5139
     12 C10        -1.7094    1.1124   -5.9185 C.3       1 <0>         0.0967
     13 N2         -0.8307    0.7920   -4.7909 N.am      1 <0>        -0.6907
     14 C11        -1.1004    1.2840   -3.5655 C.2       1 <0>         0.5060
     15 O2         -2.0704    1.9920   -3.3963 O.2       1 <0>        -0.5256
     16 C12        -0.1965    0.9545   -2.4056 C.3       1 <0>        -0.0245
     17 C13        -0.6112    3.0682   -1.2997 C.3       1 <0>        -0.0605
     18 C14         0.0081    1.1222    0.0012 C.3       1 <0>         0.1059
     19 C15        -0.6919    1.6190    1.2399 C.2       1 <0>         0.0115
     20 N3         -1.6508    1.0460    1.9113 N.2       1 <0>        -0.4449
     21 C16        -2.1954    1.6010    3.0141 C.ar      1 <0>         0.0496
     22 C17        -3.2294    1.1085    3.8408 C.ar      1 <0>        -0.0360
     23 C18        -3.6506    1.8174    4.9229 C.ar      1 <0>        -0.1095
     24 C19        -3.0876    3.0417    5.2555 C.ar      1 <0>        -0.0554
     25 C20        -2.0731    3.5580    4.4715 C.ar      1 <0>        -0.0774
     26 C21        -1.6404    2.8495    3.3769 C.ar      1 <0>        -0.1245
     27 S1         -0.4098    3.0887    2.1203 S.3       1 <0>         0.0845
     28 H1         -5.0090    1.6137  -10.7622 H         1 <0>         0.0642
     29 H2         -3.4140    2.1160  -10.1525 H         1 <0>         0.0499
     30 H3         -3.6077    1.6491  -11.8591 H         1 <0>         0.0630
     31 H4         -4.1354   -0.6719  -11.1642 H         1 <0>         0.0817
     32 H5         -3.9417   -0.2050   -9.4575 H         1 <0>         0.0670
     33 H6         -2.2346   -0.9894  -12.5791 H         1 <0>         0.1295
     34 H7          0.1915   -1.3623  -12.7545 H         1 <0>         0.1274
     35 H8          1.6654   -0.8162  -10.8604 H         1 <0>         0.1279
     36 H9          0.7169    0.1123   -8.7881 H         1 <0>         0.1427
     37 H10        -2.6890    1.0729   -8.3586 H         1 <0>         0.4153
     38 H11        -2.7171    0.7546   -5.7070 H         1 <0>         0.1149
     39 H12        -1.7309    2.1920   -6.0671 H         1 <0>         0.1163
     40 H13        -0.0549    0.2258   -4.9263 H         1 <0>         0.4233
     41 H14         0.8112    1.3122   -2.6171 H         1 <0>         0.1693
     42 H15        -0.1750   -0.1251   -2.2570 H         1 <0>         0.1660
     43 H16         0.4357    3.3624   -1.3735 H         1 <0>         0.1289
     44 H17        -1.1455    3.3997   -2.1901 H         1 <0>         0.1420
     45 H18        -1.0562    3.5272   -0.4169 H         1 <0>         0.1208
     46 H19         0.0169    0.0323    0.0013 H         1 <0>         0.1615
     47 H20         1.0327    1.4939   -0.0108 H         1 <0>         0.1618
     48 H21        -3.6902    0.1590    3.6117 H         1 <0>         0.1421
     49 H22        -4.4431    1.4177    5.5382 H         1 <0>         0.1471
     50 H23        -3.4389    3.5861    6.1196 H         1 <0>         0.1519
     51 H24        -1.6250    4.5095    4.7169 H         1 <0>         0.1453
     52 N4         -0.7300    1.5992   -1.1873 N.4       1 <0>        -0.3835
     53 H25        -1.7213    1.3516   -1.0857 H         1 <0>         0.4416
@<TRIPOS>BOND
     1    1    2 1
     2    1   28 1
     3    1   29 1
     4    1   30 1
     5    2    3 1
     6    2   31 1
     7    2   32 1
     8    3    8 ar
     9    3    4 ar
    10    4    5 ar
    11    4   33 1
    12    5    6 ar
    13    5   34 1
    14    6    7 ar
    15    6   35 1
    16    7    8 ar
    17    7   36 1
    18    8    9 1
    19    9   10 am
    20    9   37 1
    21   10   11 2
    22   10   12 1
    23   12   13 1
    24   12   38 1
    25   12   39 1
    26   13   14 am
    27   13   40 1
    28   14   15 2
    29   14   16 1
    30   16   41 1
    31   16   42 1
    32   16   52 1
    33   17   43 1
    34   17   44 1
    35   17   45 1
    36   17   52 1
    37   18   19 1
    38   18   46 1
    39   18   47 1
    40   18   52 1
    41   19   27 1
    42   19   20 2
    43   20   21 1
    44   21   26 ar
    45   21   22 ar
    46   22   23 ar
    47   22   48 1
    48   23   24 ar
    49   23   49 1
    50   24   25 ar
    51   24   50 1
    52   25   26 ar
    53   25   51 1
    54   26   27 1
    55   52   53 1
@<TRIPOS>MOLECULE
ZINC27351499
   52    53     0     0     0
SMALL
USER_CHARGES
3-[(4-fluorophenyl)-[2-[methyl-[(4-methylsulfanylphenyl)methyl]amino]acetyl]amino]propanamide
@<TRIPOS>ATOM
      1 C1         -0.1159    3.4313   -1.6488 C.3       1 <0>        -0.0589
      2 N1         -0.4274    2.0300   -1.3370 N.4       1 <0>        -0.3882
      3 C2          0.2515    1.6009   -0.1069 C.3       1 <0>         0.0497
      4 C3         -0.3077    2.3623    1.0672 C.ar      1 <0>        -0.1746
      5 C4          0.2671    3.5609    1.4491 C.ar      1 <0>        -0.0671
      6 C5         -0.2462    4.2641    2.5209 C.ar      1 <0>        -0.1372
      7 C6         -1.3345    3.7604    3.2232 C.ar      1 <0>        -0.0511
      8 C7         -1.9059    2.5529    2.8401 C.ar      1 <0>        -0.1004
      9 C8         -1.3909    1.8580    1.7638 C.ar      1 <0>        -0.0686
     10 S1         -1.9887    4.6509    4.5957 S.3       1 <0>        -0.0801
     11 C9         -0.9368    6.1248    4.7042 C.3       1 <0>        -0.1566
     12 C10        -0.0828    1.1511   -2.4625 C.3       1 <0>        -0.0321
     13 C11        -0.9752    1.4642   -3.6358 C.2       1 <0>         0.5052
     14 O1         -1.8155    2.3339   -3.5435 O.2       1 <0>        -0.5077
     15 N2         -0.8394    0.7778   -4.7877 N.am      1 <0>        -0.5414
     16 C12         0.2430   -0.1983   -4.9356 C.3       1 <0>         0.1076
     17 C13        -0.2429   -1.5730   -4.4720 C.3       1 <0>        -0.1669
     18 C14         0.8706   -2.5770   -4.6241 C.2       1 <0>         0.5189
     19 O2          1.9469   -2.2274   -5.0604 O.2       1 <0>        -0.5475
     20 N3          0.6703   -3.8634   -4.2754 N.am      1 <0>        -0.8749
     21 C15        -1.7331    0.9975   -5.8432 C.ar      1 <0>         0.1028
     22 C16        -3.0619    0.6140   -5.7202 C.ar      1 <0>        -0.0731
     23 C17        -3.9430    0.8368   -6.7602 C.ar      1 <0>        -0.1416
     24 C18        -3.4994    1.4319   -7.9293 C.ar      1 <0>         0.1192
     25 C19        -2.1733    1.8099   -8.0560 C.ar      1 <0>        -0.1401
     26 C20        -1.2903    1.5940   -7.0162 C.ar      1 <0>        -0.0793
     27 F1         -4.3617    1.6443   -8.9474 F         1 <0>        -0.1278
     28 H1         -0.6359    3.7258   -2.5723 H         1 <0>         0.1376
     29 H2          0.9695    3.5435   -1.7875 H         1 <0>         0.1175
     30 H3         -0.4481    4.0739   -0.8201 H         1 <0>         0.1269
     31 H4          0.0899    0.5234    0.0443 H         1 <0>         0.1383
     32 H5          1.3296    1.8013   -0.1941 H         1 <0>         0.1363
     33 H6          1.1156    3.9495    0.9056 H         1 <0>         0.1338
     34 H7          0.2004    5.2021    2.8159 H         1 <0>         0.1353
     35 H8         -2.7516    2.1583    3.3838 H         1 <0>         0.1409
     36 H9         -1.8347    0.9197    1.4652 H         1 <0>         0.1365
     37 H10        -1.2710    6.7528    5.5432 H         1 <0>         0.1209
     38 H11        -1.0087    6.6963    3.7671 H         1 <0>         0.0900
     39 H12         0.1071    5.8190    4.8681 H         1 <0>         0.0907
     40 H13         0.9673    1.3140   -2.7467 H         1 <0>         0.1620
     41 H14        -0.2234    0.1016   -2.1646 H         1 <0>         0.1605
     42 H15         0.5453   -0.2533   -5.9918 H         1 <0>         0.1117
     43 H16         1.1029    0.1121   -4.3238 H         1 <0>         0.0983
     44 H17        -0.5453   -1.5180   -3.4158 H         1 <0>         0.0925
     45 H18        -1.1027   -1.8835   -5.0838 H         1 <0>         0.1091
     46 H19         1.4830   -4.5963   -4.3864 H         1 <0>         0.4323
     47 H20        -0.3059   -4.1804   -3.8798 H         1 <0>         0.4234
     48 H21        -3.4072    0.1458   -4.8103 H         1 <0>         0.1334
     49 H22        -4.9777    0.5430   -6.6632 H         1 <0>         0.1465
     50 H23        -1.8294    2.2742   -8.9684 H         1 <0>         0.1479
     51 H24        -0.2562    1.8894   -7.1153 H         1 <0>         0.1393
     52 H25        -1.5118    1.9542   -1.1687 H         1 <0>         0.4504
@<TRIPOS>BOND
     1    1    2 1
     2    1   28 1
     3    1   29 1
     4    1   30 1
     5    2    3 1
     6    2   12 1
     7    2   52 1
     8    3    4 1
     9    3   31 1
    10    3   32 1
    11    4    9 ar
    12    4    5 ar
    13    5    6 ar
    14    5   33 1
    15    6    7 ar
    16    6   34 1
    17    7    8 ar
    18    7   10 1
    19    8    9 ar
    20    8   35 1
    21    9   36 1
    22   10   11 1
    23   11   37 1
    24   11   38 1
    25   11   39 1
    26   12   13 1
    27   12   40 1
    28   12   41 1
    29   13   14 2
    30   13   15 am
    31   15   16 1
    32   15   21 1
    33   16   17 1
    34   16   42 1
    35   16   43 1
    36   17   18 1
    37   17   44 1
    38   17   45 1
    39   18   19 2
    40   18   20 am
    41   20   46 1
    42   20   47 1
    43   21   26 ar
    44   21   22 ar
    45   22   23 ar
    46   22   48 1
    47   23   24 ar
    48   23   49 1
    49   24   25 ar
    50   24   27 1
    51   25   26 ar
    52   25   50 1
    53   26   51 1
@<TRIPOS>MOLECULE
ZINC39658436
   65    67     0     0     0
SMALL
USER_CHARGES

@<TRIPOS>ATOM
      1 C1          0.1310    1.3114   -0.2347 C.3       1 <0>        -0.1566
      2 C2          0.0807   -0.2155   -0.1516 C.3       1 <0>        -0.1064
      3 C3          0.8127   -0.6821    1.1083 C.3       1 <0>        -0.1059
      4 H1          0.3877   -0.1852    1.9804 H         1 <0>         0.0983
      5 C4          2.2977   -0.3316    0.9947 C.3       1 <0>        -0.1550
      6 C5          0.6585   -2.1740    1.2554 C.2       1 <0>         0.5444
      7 O1          0.0255   -2.8021    0.4334 O.2       1 <0>        -0.5277
      8 N1          1.2240   -2.8101    2.3003 N.am      1 <0>        -0.6237
      9 C6          2.0216   -2.2186    3.4002 C.3       1 <0>         0.1096
     10 C7          1.5719   -2.9847    4.6644 C.3       1 <0>        -0.1142
     11 H2          0.7874   -2.4337    5.1831 H         1 <0>         0.1118
     12 C8          1.0280   -4.3238    4.1389 C.3       1 <0>        -0.0717
     13 C9          1.1830   -4.2590    2.6125 C.3       1 <0>         0.1063
     14 C10         1.8418   -5.4834    4.7049 C.3       1 <0>        -0.1468
     15 C11         1.2461   -6.8062    4.2147 C.3       1 <0>        -0.0078
     16 N2         -0.1525   -6.9061    4.6488 N.4       1 <0>        -0.5043
     17 C12        -0.9473   -5.8408    4.0257 C.3       1 <0>        -0.0113
     18 C13        -0.4445   -4.4772    4.5081 C.3       1 <0>        -0.1335
     19 C14         2.7442   -3.2159    5.5827 C.2       1 <0>         0.5206
     20 O2          3.8586   -3.3465    5.1222 O.2       1 <0>        -0.5160
     21 N3          2.5543   -3.2775    6.9156 N.am      1 <0>        -0.7263
     22 C15         3.6940   -3.5023    7.8082 C.3       1 <0>         0.1347
     23 C16         3.2081   -3.5289    9.2588 C.3       1 <0>        -0.1154
     24 S1          4.6192   -3.8072   10.3641 S.3       1 <0>        -0.2212
     25 C17         3.8837   -3.8116   12.0223 C.3       1 <0>        -0.0414
     26 C18         4.9628   -4.0366   13.0499 C.ar      1 <0>        -0.0856
     27 C19         5.2903   -5.3223   13.4380 C.ar      1 <0>        -0.0999
     28 C20         6.2802   -5.5287   14.3807 C.ar      1 <0>        -0.1196
     29 C21         6.9427   -4.4494   14.9348 C.ar      1 <0>        -0.1078
     30 C22         6.6158   -3.1638   14.5461 C.ar      1 <0>        -0.1183
     31 C23         5.6289   -2.9576   13.6003 C.ar      1 <0>        -0.0986
     32 H3          1.1698    1.6390   -0.2756 H         1 <0>         0.0595
     33 H4         -0.3904    1.6439   -1.1323 H         1 <0>         0.0621
     34 H5         -0.3505    1.7392    0.6447 H         1 <0>         0.0551
     35 H6         -0.9581   -0.5431   -0.1107 H         1 <0>         0.0704
     36 H7          0.5622   -0.6432   -1.0310 H         1 <0>         0.0707
     37 H8          2.4092    0.7474    0.8883 H         1 <0>         0.0772
     38 H9          2.8191   -0.6641    1.8923 H         1 <0>         0.0621
     39 H10         2.7226   -0.8286    0.1226 H         1 <0>         0.0638
     40 H11         3.0861   -2.3709    3.2221 H         1 <0>         0.1013
     41 H12         1.8006   -1.1560    3.5010 H         1 <0>         0.0963
     42 H13         0.3298   -4.7295    2.1239 H         1 <0>         0.0887
     43 H14         2.1115   -4.7407    2.3057 H         1 <0>         0.0838
     44 H15         2.8749   -5.4021    4.3669 H         1 <0>         0.1273
     45 H16         1.8112   -5.4521    5.7941 H         1 <0>         0.0956
     46 H17         1.2920   -6.8438    3.1263 H         1 <0>         0.1338
     47 H18         1.8157   -7.6372    4.6307 H         1 <0>         0.1397
     48 H19        -0.5242   -7.8039    4.3774 H         1 <0>         0.4346
     49 H20        -0.8492   -5.9014    2.9418 H         1 <0>         0.1344
     50 H21        -1.9948   -5.9602    4.3024 H         1 <0>         0.1398
     51 H22        -0.5573   -4.4098    5.5901 H         1 <0>         0.0954
     52 H23        -1.0235   -3.6864    4.0313 H         1 <0>         0.1179
     53 H24         1.6630   -3.1730    7.2838 H         1 <0>         0.4009
     54 H25         4.1637   -4.4553    7.5649 H         1 <0>         0.0818
     55 H26         4.4183   -2.6976    7.6824 H         1 <0>         0.0846
     56 H27         2.7383   -2.5759    9.5022 H         1 <0>         0.0896
     57 H28         2.4837   -4.3336    9.3846 H         1 <0>         0.0850
     58 H29         3.3998   -2.8526   12.2076 H         1 <0>         0.0923
     59 H30         3.1452   -4.6104   12.0901 H         1 <0>         0.0906
     60 H31         4.7727   -6.1654   13.0051 H         1 <0>         0.1227
     61 H32         6.5356   -6.5331   14.6844 H         1 <0>         0.1265
     62 H33         7.7156   -4.6106   15.6718 H         1 <0>         0.1266
     63 H34         7.1332   -2.3206   14.9793 H         1 <0>         0.1274
     64 H35         5.3760   -1.9533   13.2938 H         1 <0>         0.1245
     65 H36        -0.1990   -6.8152    5.6527 H         1 <0>         0.4271
@<TRIPOS>BOND
     1    1    2 1
     2    1   32 1
     3    1   33 1
     4    1   34 1
     5    2    3 1
     6    2   35 1
     7    2   36 1
     8    3    4 1
     9    3    5 1
    10    3    6 1
    11    5   37 1
    12    5   38 1
    13    5   39 1
    14    6    7 2
    15    6    8 am
    16    8   13 1
    17    8    9 1
    18    9   10 1
    19    9   40 1
    20    9   41 1
    21   10   11 1
    22   10   12 1
    23   10   19 1
    24   12   18 1
    25   12   13 1
    26   12   14 1
    27   13   42 1
    28   13   43 1
    29   14   15 1
    30   14   44 1
    31   14   45 1
    32   15   16 1
    33   15   46 1
    34   15   47 1
    35   16   17 1
    36   16   48 1
    37   16   65 1
    38   17   18 1
    39   17   49 1
    40   17   50 1
    41   18   51 1
    42   18   52 1
    43   19   20 2
    44   19   21 am
    45   21   22 1
    46   21   53 1
    47   22   23 1
    48   22   54 1
    49   22   55 1
    50   23   24 1
    51   23   56 1
    52   23   57 1
    53   24   25 1
    54   25   26 1
    55   25   58 1
    56   25   59 1
    57   26   31 ar
    58   26   27 ar
    59   27   28 ar
    60   27   60 1
    61   28   29 ar
    62   28   61 1
    63   29   30 ar
    64   29   62 1
    65   30   31 ar
    66   30   63 1
    67   31   64 1
@<TRIPOS>MOLECULE
ZINC53603059
   52    54     0     0     0
SMALL
USER_CHARGES

@<TRIPOS>ATOM
      1 C1         -0.0178    1.4648    0.0101 C.3       1 <0>        -0.0488
      2 N1          0.0021   -0.0041    0.0020 N.4       1 <0>        -0.3824
      3 C2          0.7126   -0.4907    1.1921 C.3       1 <0>         0.0496
      4 C3          2.1584   -0.0720    1.1202 C.ar      1 <0>        -0.1635
      5 C4          3.0852   -0.8949    0.5075 C.ar      1 <0>        -0.0835
      6 C5          4.4127   -0.5153    0.4390 C.ar      1 <0>        -0.1758
      7 C6          4.8169    0.6925    0.9846 C.ar      1 <0>         0.1390
      8 C7          3.8841    1.5210    1.6009 C.ar      1 <0>         0.1075
      9 C8          2.5542    1.1367    1.6619 C.ar      1 <0>        -0.1554
     10 O1          4.2760    2.7074    2.1379 O.3       1 <0>        -0.2970
     11 C9          3.2641    3.5062    2.7545 C.3       1 <0>         0.0224
     12 O2          6.1226    1.0672    0.9184 O.3       1 <0>        -0.2965
     13 C10         7.0240    0.1666    0.2716 C.3       1 <0>         0.0203
     14 C11        -1.3761   -0.5125    0.0124 C.3       1 <0>         0.0745
     15 C12        -2.0674   -0.1162   -1.2666 C.2       1 <0>        -0.0026
     16 C13        -2.1069   -0.9813   -2.3168 C.2       1 <0>        -0.1793
     17 S1         -3.0194   -0.0100   -3.5097 S.3       1 <0>         0.1005
     18 C14        -3.2477    1.4362   -2.4834 C.2       1 <0>         0.1711
     19 N2         -2.6366    1.0601   -1.3680 N.2       1 <0>        -0.4996
     20 C15        -3.9364    2.7060   -2.7926 C.ar      1 <0>        -0.0132
     21 C16        -3.9933    3.7212   -1.8343 C.ar      1 <0>        -0.0705
     22 C17        -4.6344    4.9042   -2.1223 C.ar      1 <0>        -0.0594
     23 C18        -5.2286    5.0902   -3.3735 C.ar      1 <0>        -0.1038
     24 C19        -5.1716    4.0746   -4.3319 C.ar      1 <0>        -0.0823
     25 C20        -4.5259    2.8939   -4.0454 C.ar      1 <0>        -0.0916
     26 C21        -5.9172    6.3596   -3.6826 C.2       1 <0>         0.5573
     27 O3         -5.9670    7.2429   -2.8487 O.2       1 <0>        -0.5278
     28 N3         -6.4902    6.5389   -4.8893 N.am      1 <0>        -0.8460
     29 H1          1.0047    1.8421    0.0024 H         1 <0>         0.1200
     30 H2         -0.5450    1.8259   -0.8730 H         1 <0>         0.1235
     31 H3         -0.5280    1.8163    0.9069 H         1 <0>         0.1230
     32 H4          0.2557   -0.0671    2.0865 H         1 <0>         0.1362
     33 H5          0.6508   -1.5782    1.2328 H         1 <0>         0.1389
     34 H6          2.7714   -1.8366    0.0818 H         1 <0>         0.1362
     35 H7          5.1347   -1.1603   -0.0396 H         1 <0>         0.1480
     36 H8          1.8275    1.7796    2.1364 H         1 <0>         0.1431
     37 H9          3.7100    4.4227    3.1408 H         1 <0>         0.1107
     38 H10         2.4998    3.7560    2.0187 H         1 <0>         0.0556
     39 H11         2.8109    2.9490    3.5745 H         1 <0>         0.0593
     40 H12         7.0199   -0.7897    0.7946 H         1 <0>         0.0623
     41 H13         6.7094    0.0172   -0.7613 H         1 <0>         0.0611
     42 H14         8.0302    0.5854    0.2880 H         1 <0>         0.1114
     43 H15        -1.3618   -1.5992    0.0961 H         1 <0>         0.1450
     44 H16        -1.9129   -0.0898    0.8617 H         1 <0>         0.1441
     45 H17        -1.6997   -1.9777   -2.4054 H         1 <0>         0.2111
     46 H18        -3.5344    3.5773   -0.8673 H         1 <0>         0.1432
     47 H19        -4.6787    5.6887   -1.3815 H         1 <0>         0.1505
     48 H20        -5.6308    4.2183   -5.2988 H         1 <0>         0.1414
     49 H21        -4.4783    2.1106   -4.7875 H         1 <0>         0.1362
     50 H22        -6.4504    5.8342   -5.5546 H         1 <0>         0.4021
     51 H23        -6.9424    7.3727   -5.0923 H         1 <0>         0.4119
     52 H24         0.4743   -0.3295   -0.8281 H         1 <0>         0.4220
@<TRIPOS>BOND
     1    1    2 1
     2    1   29 1
     3    1   30 1
     4    1   31 1
     5    2    3 1
     6    2   14 1
     7    2   52 1
     8    3    4 1
     9    3   32 1
    10    3   33 1
    11    4    9 ar
    12    4    5 ar
    13    5    6 ar
    14    5   34 1
    15    6    7 ar
    16    6   35 1
    17    7    8 ar
    18    7   12 1
    19    8    9 ar
    20    8   10 1
    21    9   36 1
    22   10   11 1
    23   11   37 1
    24   11   38 1
    25   11   39 1
    26   12   13 1
    27   13   40 1
    28   13   41 1
    29   13   42 1
    30   14   15 1
    31   14   43 1
    32   14   44 1
    33   15   19 1
    34   15   16 2
    35   16   17 1
    36   16   45 1
    37   17   18 1
    38   18   19 2
    39   18   20 1
    40   20   25 ar
    41   20   21 ar
    42   21   22 ar
    43   21   46 1
    44   22   23 ar
    45   22   47 1
    46   23   24 ar
    47   23   26 1
    48   24   25 ar
    49   24   48 1
    50   25   49 1
    51   26   27 2
    52   26   28 am
    53   28   50 1
    54   28   51 1
@<TRIPOS>MOLECULE
ZINC65252785
   66    67     0     0     0
SMALL
USER_CHARGES

@<TRIPOS>ATOM
      1 C1         -3.9339    1.4362    2.9796 C.3       1 <0>        -0.1571
      2 C2         -3.3818    0.0521    2.6326 C.3       1 <0>        -0.1220
      3 C3         -2.6987   -0.5478    3.8632 C.3       1 <0>        -0.1318
      4 C4         -2.1467   -1.9318    3.5162 C.3       1 <0>         0.1404
      5 C5         -1.3566   -2.4790    4.7067 C.3       1 <0>        -0.1670
      6 N1         -3.2566   -2.8374    3.2090 N.am      1 <0>        -0.7116
      7 C6         -3.0530   -3.9082    2.4164 C.2       1 <0>         0.5251
      8 O1         -1.9510   -4.1222    1.9574 O.2       1 <0>        -0.5286
      9 C7         -4.1947   -4.8397    2.1004 C.3       1 <0>        -0.1284
     10 C8         -5.3057   -4.0635    1.3874 C.3       1 <0>        -0.1309
     11 C9         -6.4259   -5.0336    1.0013 C.3       1 <0>        -0.1407
     12 C10        -5.8479   -6.1509    0.1300 C.3       1 <0>        -0.0166
     13 N2         -4.8102   -6.8717    0.8770 N.4       1 <0>        -0.3684
     14 C11        -3.6994   -5.9641    1.1884 C.3       1 <0>         0.0028
     15 C12        -4.3133   -7.9911    0.0659 C.3       1 <0>         0.0059
     16 C13        -5.4871   -8.8802   -0.3497 C.3       1 <0>        -0.1801
     17 C14        -3.3318   -8.8002    0.8740 C.2       1 <0>         0.5022
     18 O2         -3.2587   -8.6422    2.0743 O.2       1 <0>        -0.5033
     19 N3         -2.5353   -9.6994    0.2629 N.am      1 <0>        -0.6427
     20 C15        -1.6912  -10.5167    1.0228 C.ar      1 <0>         0.1102
     21 C16        -0.7655   -9.9478    1.8880 C.ar      1 <0>        -0.0619
     22 C17         0.0661  -10.7571    2.6365 C.ar      1 <0>        -0.1142
     23 C18        -0.0217  -12.1329    2.5250 C.ar      1 <0>        -0.0982
     24 C19        -0.9418  -12.7023    1.6644 C.ar      1 <0>        -0.1118
     25 C20        -1.7811  -11.8983    0.9178 C.ar      1 <0>        -0.0751
     26 C21        -2.7886  -12.5199   -0.0147 C.3       1 <0>        -0.0867
     27 C22        -2.1986  -12.5983   -1.4242 C.3       1 <0>        -0.1496
     28 C23        -0.6684   -8.4488    2.0094 C.3       1 <0>        -0.1072
     29 H1         -3.1164    2.0851    3.2939 H         1 <0>         0.0580
     30 H2         -4.4205    1.8635    2.1029 H         1 <0>         0.0565
     31 H3         -4.6581    1.3460    3.7893 H         1 <0>         0.0552
     32 H4         -4.1993   -0.5968    2.3183 H         1 <0>         0.0570
     33 H5         -2.6577    0.1423    1.8229 H         1 <0>         0.0632
     34 H6         -1.8813    0.1012    4.1775 H         1 <0>         0.0857
     35 H7         -3.4229   -0.6380    4.6729 H         1 <0>         0.0711
     36 H8         -1.4904   -1.8543    2.6494 H         1 <0>         0.0930
     37 H9         -2.0129   -2.5564    5.5736 H         1 <0>         0.0595
     38 H10        -0.9633   -3.4650    4.4595 H         1 <0>         0.0605
     39 H11        -0.5308   -1.8052    4.9353 H         1 <0>         0.0727
     40 H12        -4.1380   -2.6662    3.5761 H         1 <0>         0.4023
     41 H13        -4.5835   -5.2658    3.0253 H         1 <0>         0.1217
     42 H14        -5.7008   -3.2972    2.0543 H         1 <0>         0.1003
     43 H15        -4.9039   -3.5945    0.4891 H         1 <0>         0.0904
     44 H16        -6.8617   -5.4638    1.9030 H         1 <0>         0.0930
     45 H17        -7.1949   -4.4985    0.4442 H         1 <0>         0.1213
     46 H18        -6.6429   -6.8433   -0.1468 H         1 <0>         0.1395
     47 H19        -5.4127   -5.7196   -0.7715 H         1 <0>         0.1336
     48 H20        -3.3100   -5.5369    0.2643 H         1 <0>         0.1363
     49 H21        -2.9082   -6.5187    1.6929 H         1 <0>         0.1452
     50 H22        -3.8184   -7.6032   -0.8244 H         1 <0>         0.1613
     51 H23        -6.1970   -8.2950   -0.9342 H         1 <0>         0.1014
     52 H24        -5.1184   -9.7109   -0.9515 H         1 <0>         0.1119
     53 H25        -5.9820   -9.2682    0.5406 H         1 <0>         0.0913
     54 H26        -2.5471   -9.7800   -0.7036 H         1 <0>         0.4148
     55 H27         0.7861  -10.3153    3.3095 H         1 <0>         0.1309
     56 H28         0.6301  -12.7637    3.1113 H         1 <0>         0.1318
     57 H29        -1.0077  -13.7769    1.5793 H         1 <0>         0.1321
     58 H30        -3.0344  -13.5235    0.3327 H         1 <0>         0.0813
     59 H31        -3.6919  -11.9102   -0.0323 H         1 <0>         0.0660
     60 H32        -1.9528  -11.5948   -1.7715 H         1 <0>         0.0485
     61 H33        -1.2953  -13.2081   -1.4065 H         1 <0>         0.0641
     62 H34        -2.9273  -13.0479   -2.0986 H         1 <0>         0.0651
     63 H35        -1.2343   -8.1174    2.8801 H         1 <0>         0.0819
     64 H36         0.3765   -8.1604    2.1239 H         1 <0>         0.0705
     65 H37        -1.0773   -7.9844    1.1120 H         1 <0>         0.0492
     66 H38        -5.2021   -7.2289    1.7355 H         1 <0>         0.4289
@<TRIPOS>BOND
     1    1    2 1
     2    1   29 1
     3    1   30 1
     4    1   31 1
     5    2    3 1
     6    2   32 1
     7    2   33 1
     8    3    4 1
     9    3   34 1
    10    3   35 1
    11    4    5 1
    12    4    6 1
    13    4   36 1
    14    5   37 1
    15    5   38 1
    16    5   39 1
    17    6    7 am
    18    6   40 1
    19    7    8 2
    20    7    9 1
    21    9   14 1
    22    9   10 1
    23    9   41 1
    24   10   11 1
    25   10   42 1
    26   10   43 1
    27   11   12 1
    28   11   44 1
    29   11   45 1
    30   12   13 1
    31   12   46 1
    32   12   47 1
    33   13   14 1
    34   13   15 1
    35   13   66 1
    36   14   48 1
    37   14   49 1
    38   15   16 1
    39   15   17 1
    40   15   50 1
    41   16   51 1
    42   16   52 1
    43   16   53 1
    44   17   18 2
    45   17   19 am
    46   19   20 1
    47   19   54 1
    48   20   25 ar
    49   20   21 ar
    50   21   22 ar
    51   21   28 1
    52   22   23 ar
    53   22   55 1
    54   23   24 ar
    55   23   56 1
    56   24   25 ar
    57   24   57 1
    58   25   26 1
    59   26   27 1
    60   26   58 1
    61   26   59 1
    62   27   60 1
    63   27   61 1
    64   27   62 1
    65   28   63 1
    66   28   64 1
    67   28   65 1
@<TRIPOS>MOLECULE
ZINC13745302
   52    54     0     0     0
SMALL
USER_CHARGES
(6S)-6-methyl-2-[[2-[(3R)-3-methyl-1-piperidyl]acetyl]amino]-4,5,6,7-tetrahydrobenzothiophene-3-carboxamide
@<TRIPOS>ATOM
      1 C1         -5.1929    1.9606   -4.4526 C.3       1 <0>        -0.1495
      2 C2         -4.3231    1.4999   -3.2813 C.3       1 <0>        -0.0871
      3 H1         -4.4494    0.4280   -3.1292 H         1 <0>         0.0784
      4 C3         -2.8530    1.8059   -3.5820 C.3       1 <0>        -0.1163
      5 C4         -1.9579    1.1331   -2.5399 C.3       1 <0>        -0.0628
      6 C5         -2.4435    1.5280   -1.1506 C.2       1 <0>        -0.0724
      7 C6         -3.6883    2.0173   -0.9620 C.2       1 <0>        -0.1790
      8 S1         -3.7968    2.3188    0.7792 S.3       1 <0>         0.2335
      9 C7         -2.2145    1.7954    1.2529 C.2       1 <0>         0.0278
     10 C8         -1.6400    1.4000    0.0532 C.2       1 <0>        -0.1866
     11 C9         -0.2707    0.8783    0.0014 C.2       1 <0>         0.5759
     12 O1         -0.0692   -0.3155    0.1258 O.2       1 <0>        -0.5246
     13 N1          0.7644    1.7201   -0.1895 N.am      1 <0>        -0.8462
     14 N2         -1.6574    1.7765    2.5225 N.am      1 <0>        -0.5934
     15 C10        -2.3753    2.2043    3.5799 C.2       1 <0>         0.4935
     16 O2         -3.5087    2.6057    3.4209 O.2       1 <0>        -0.4935
     17 C11        -1.7698    2.1838    4.9597 C.3       1 <0>        -0.0192
     18 C12        -2.2539    2.6132    7.2924 C.3       1 <0>        -0.0016
     19 C13        -3.3055    3.1756    8.2516 C.3       1 <0>        -0.1465
     20 C14        -3.4845    4.6726    7.9842 C.3       1 <0>        -0.1356
     21 C15        -3.8880    4.8770    6.5213 C.3       1 <0>        -0.1081
     22 H2         -4.8456    4.3904    6.3359 H         1 <0>         0.0959
     23 C16        -2.8196    4.2653    5.6123 C.3       1 <0>        -0.0079
     24 C17        -4.0108    6.3739    6.2297 C.3       1 <0>        -0.1512
     25 C18        -4.7344    2.2525   -2.0075 C.3       1 <0>        -0.0373
     26 H3         -5.0591    3.0315   -4.6054 H         1 <0>         0.0585
     27 H4         -4.8994    1.4253   -5.3556 H         1 <0>         0.0620
     28 H5         -6.2398    1.7531   -4.2314 H         1 <0>         0.0597
     29 H6         -2.6003    1.4299   -4.5734 H         1 <0>         0.0762
     30 H7         -2.6944    2.8840   -3.5538 H         1 <0>         0.0686
     31 H8         -2.0119    0.0506   -2.6560 H         1 <0>         0.0838
     32 H9         -0.9281    1.4640   -2.6743 H         1 <0>         0.0756
     33 H10         1.6699    1.3745   -0.2277 H         1 <0>         0.4079
     34 H11         0.6038    2.6716   -0.2886 H         1 <0>         0.4044
     35 H12        -0.7509    1.4554    2.6496 H         1 <0>         0.4265
     36 H13        -1.6008    1.1518    5.2670 H         1 <0>         0.1677
     37 H14        -0.8206    2.7195    4.9479 H         1 <0>         0.1654
     38 H15        -2.1344    1.5446    7.4706 H         1 <0>         0.1316
     39 H16        -1.3025    3.1179    7.4602 H         1 <0>         0.1338
     40 H17        -2.9767    3.0265    9.2801 H         1 <0>         0.1160
     41 H18        -4.2537    2.6618    8.0940 H         1 <0>         0.0895
     42 H19        -2.5465    5.1923    8.1793 H         1 <0>         0.0826
     43 H20        -4.2637    5.0684    8.6356 H         1 <0>         0.0958
     44 H21        -1.8655    4.7622    5.7879 H         1 <0>         0.1296
     45 H22        -3.1111    4.3965    4.5702 H         1 <0>         0.1357
     46 H23        -4.2946    6.5190    5.1873 H         1 <0>         0.0690
     47 H24        -4.7718    6.8091    6.8774 H         1 <0>         0.0784
     48 H25        -3.0533    6.8602    6.4166 H         1 <0>         0.0663
     49 H26        -5.6961    1.8797   -1.6551 H         1 <0>         0.0857
     50 H27        -4.8093    3.3193   -2.2186 H         1 <0>         0.0892
     51 N3         -2.7133    2.8196    5.9023 N.4       1 <0>        -0.3820
     52 H28        -3.6383    2.3885    5.7898 H         1 <0>         0.4363
@<TRIPOS>BOND
     1    1    2 1
     2    1   26 1
     3    1   27 1
     4    1   28 1
     5    2    3 1
     6    2   25 1
     7    2    4 1
     8    4    5 1
     9    4   29 1
    10    4   30 1
    11    5    6 1
    12    5   31 1
    13    5   32 1
    14    6   10 1
    15    6    7 2
    16    7    8 1
    17    7   25 1
    18    8    9 1
    19    9   10 2
    20    9   14 1
    21   10   11 1
    22   11   12 2
    23   11   13 am
    24   13   33 1
    25   13   34 1
    26   14   15 am
    27   14   35 1
    28   15   16 2
    29   15   17 1
    30   17   36 1
    31   17   37 1
    32   17   51 1
    33   18   19 1
    34   18   38 1
    35   18   39 1
    36   18   51 1
    37   19   20 1
    38   19   40 1
    39   19   41 1
    40   20   21 1
    41   20   42 1
    42   20   43 1
    43   21   22 1
    44   21   23 1
    45   21   24 1
    46   23   44 1
    47   23   45 1
    48   23   51 1
    49   24   46 1
    50   24   47 1
    51   24   48 1
    52   25   49 1
    53   25   50 1
    54   51   52 1
@<TRIPOS>MOLECULE
ZINC37034365
   34    36     0     0     0
SMALL
USER_CHARGES

@<TRIPOS>ATOM
      1 C1         -0.0167    1.3781    0.0096 C.ar      1 <0>        -0.1097
      2 C2          1.1688    2.0915    0.0021 C.ar      1 <0>        -0.0922
      3 C3          2.3777    1.4189   -0.0131 C.ar      1 <0>         0.1104
      4 C4          2.3966    0.0247   -0.0211 C.ar      1 <0>         0.1155
      5 C5          1.2069   -0.6836   -0.0128 C.ar      1 <0>        -0.0921
      6 C6          0.0021   -0.0041    0.0020 C.ar      1 <0>        -0.1393
      7 C7         -1.2940   -0.7730    0.0110 C.3       1 <0>         0.1467
      8 H1         -1.1102   -1.7908    0.3552 H         1 <0>         0.1642
      9 C8         -1.8660   -0.8096   -1.3827 C.ar      1 <0>        -0.1060
     10 C9         -2.5519    0.2840   -1.8768 C.ar      1 <0>        -0.1459
     11 C10        -3.0775    0.2507   -3.1572 C.ar      1 <0>         0.1325
     12 C11        -2.9156   -0.8786   -3.9419 C.ar      1 <0>        -0.1020
     13 C12        -2.2292   -1.9716   -3.4459 C.ar      1 <0>        -0.0560
     14 C13        -1.6997   -1.9345   -2.1682 C.ar      1 <0>        -0.0700
     15 Br1        -2.0076   -3.5143   -4.5168 Br        1 <0>         0.0018
     16 F1         -3.7484    1.3191   -3.6405 F         1 <0>        -0.1161
     17 N1         -2.2473   -0.1152    0.9145 N.4       1 <0>        -0.6354
     18 N2          3.6289   -0.6440   -0.0382 N.am      1 <0>        -0.6645
     19 C14         4.7508    0.0430    0.2688 C.2       1 <0>         0.4892
     20 O1          5.8312   -0.5070    0.2305 O.2       1 <0>        -0.4824
     21 C15         4.6548    1.4961    0.6587 C.3       1 <0>         0.0489
     22 O2          3.5524    2.1038   -0.0198 O.3       1 <0>        -0.2931
     23 H2         -0.9603    1.9032    0.0260 H         1 <0>         0.1305
     24 H3          1.1505    3.1713    0.0078 H         1 <0>         0.1551
     25 H4          1.2195   -1.7635   -0.0185 H         1 <0>         0.1467
     26 H5         -2.6781    1.1643   -1.2640 H         1 <0>         0.1407
     27 H6         -3.3256   -0.9058   -4.9407 H         1 <0>         0.1603
     28 H7         -1.1598   -2.7868   -1.7829 H         1 <0>         0.1526
     29 H8         -3.1151   -0.6300    0.9205 H         1 <0>         0.4433
     30 H9         -1.8643   -0.0906    1.8477 H         1 <0>         0.4447
     31 H10         3.6751   -1.5856   -0.2667 H         1 <0>         0.4222
     32 H11         4.5054    1.5737    1.7356 H         1 <0>         0.1108
     33 H12         5.5771    2.0074    0.3830 H         1 <0>         0.1578
     34 H13        -2.4174    0.8270    0.5959 H         1 <0>         0.4306
@<TRIPOS>BOND
     1    1    6 ar
     2    1    2 ar
     3    1   23 1
     4    2    3 ar
     5    2   24 1
     6    3   22 1
     7    3    4 ar
     8    4    5 ar
     9    4   18 1
    10    5    6 ar
    11    5   25 1
    12    6    7 1
    13    7    8 1
    14    7    9 1
    15    7   17 1
    16    9   14 ar
    17    9   10 ar
    18   10   11 ar
    19   10   26 1
    20   11   12 ar
    21   11   16 1
    22   12   13 ar
    23   12   27 1
    24   13   14 ar
    25   13   15 1
    26   14   28 1
    27   17   29 1
    28   17   30 1
    29   17   34 1
    30   18   19 am
    31   18   31 1
    32   19   20 2
    33   19   21 1
    34   21   22 1
    35   21   32 1
    36   21   33 1
@<TRIPOS>MOLECULE
ZINC42500060
   41    42     0     0     0
SMALL
USER_CHARGES

@<TRIPOS>ATOM
      1 C1         -0.0187    1.5258    0.0104 C.3       1 <0>        -0.1705
      2 C2          0.0021   -0.0041    0.0020 C.3       1 <0>         0.1565
      3 C3          0.7421   -0.5109    1.2415 C.3       1 <0>        -0.1772
      4 N1         -1.3723   -0.5112    0.0124 N.pl3     1 <0>        -0.6717
      5 C4         -1.8505   -1.3539   -1.0864 C.3       1 <0>         0.1385
      6 C5         -1.5777   -2.8232   -0.7581 C.3       1 <0>        -0.1516
      7 C6         -2.0771   -3.7034   -1.9056 C.3       1 <0>         0.0771
      8 O1         -1.8223   -5.0756   -1.5990 O.3       1 <0>        -0.5729
      9 C7         -2.2236   -0.1923    1.0659 C.ar      1 <0>         0.2633
     10 C8         -2.2967   -1.0089    2.2168 C.ar      1 <0>        -0.0504
     11 C9         -1.5153   -2.1674    2.3392 C.ar      1 <0>        -0.0452
     12 C10        -1.6127   -2.9299    3.4645 C.ar      1 <0>        -0.0789
     13 C11        -2.4796   -2.5726    4.4960 C.ar      1 <0>        -0.0282
     14 C12        -3.2513   -1.4552    4.4089 C.ar      1 <0>        -0.1269
     15 C13        -3.1782   -0.6434    3.2631 C.ar      1 <0>         0.1229
     16 N2         -3.9258    0.4602    3.1544 N.ar      1 <0>        -0.4286
     17 C14        -3.8703    1.2301    2.0924 C.ar      1 <0>         0.1314
     18 C15        -3.0251    0.9431    1.0221 C.ar      1 <0>         0.1621
     19 N3         -2.9868    1.7914   -0.0941 N.pl3     1 <0>        -0.8376
     20 Br1        -0.5595   -4.4919    3.6284 Br        1 <0>         0.0046
     21 H1          1.0039    1.9031    0.0027 H         1 <0>         0.0774
     22 H2         -0.5459    1.8868   -0.8726 H         1 <0>         0.0618
     23 H3         -0.5289    1.8773    0.9072 H         1 <0>         0.0535
     24 H4          0.5123   -0.3556   -0.8948 H         1 <0>         0.1034
     25 H5          0.2319   -0.1594    2.1383 H         1 <0>         0.0527
     26 H6          0.7568   -1.6008    1.2356 H         1 <0>         0.0650
     27 H7          1.7647   -0.1336    1.2338 H         1 <0>         0.0779
     28 H8         -2.9219   -1.2042   -1.2194 H         1 <0>         0.0737
     29 H9         -1.3291   -1.0840   -2.0047 H         1 <0>         0.0912
     30 H10        -0.5063   -2.9729   -0.6251 H         1 <0>         0.0791
     31 H11        -2.0991   -3.0931    0.1603 H         1 <0>         0.0702
     32 H12        -3.1485   -3.5536   -2.0386 H         1 <0>         0.0456
     33 H13        -1.5557   -3.4334   -2.8240 H         1 <0>         0.0504
     34 H14        -2.1137   -5.6924   -2.2844 H         1 <0>         0.3878
     35 H15        -0.8406   -2.4537    1.5460 H         1 <0>         0.1707
     36 H16        -2.5401   -3.1927    5.3782 H         1 <0>         0.1624
     37 H17        -3.9178   -1.1927    5.2171 H         1 <0>         0.1640
     38 H18        -4.4930    2.1114    2.0488 H         1 <0>         0.2091
     39 H19        -2.3999    1.5869   -0.8388 H         1 <0>         0.4214
     40 H20        -3.5473    2.5826   -0.1214 H         1 <0>         0.4144
     41 H21        -4.5250    0.6980    3.8791 H         1 <0>         0.4514
@<TRIPOS>BOND
     1    1    2 1
     2    1   21 1
     3    1   22 1
     4    1   23 1
     5    2    3 1
     6    2    4 1
     7    2   24 1
     8    3   25 1
     9    3   26 1
    10    3   27 1
    11    4    5 1
    12    4    9 1
    13    5    6 1
    14    5   28 1
    15    5   29 1
    16    6    7 1
    17    6   30 1
    18    6   31 1
    19    7    8 1
    20    7   32 1
    21    7   33 1
    22    8   34 1
    23    9   18 ar
    24    9   10 ar
    25   10   15 ar
    26   10   11 ar
    27   11   12 ar
    28   11   35 1
    29   12   13 ar
    30   12   20 1
    31   13   14 ar
    32   13   36 1
    33   14   15 ar
    34   14   37 1
    35   15   16 ar
    36   16   17 ar
    37   16   41 1
    38   17   18 ar
    39   17   38 1
    40   18   19 1
    41   19   39 1
    42   19   40 1
@<TRIPOS>MOLECULE
ZINC49147465
   33    34     0     0     0
SMALL
USER_CHARGES

@<TRIPOS>ATOM
      1 C1         -0.0187    1.5258    0.0104 C.3       1 <0>        -0.1754
      2 C2          0.0021   -0.0041    0.0020 C.3       1 <0>         0.2432
      3 H1          0.5123   -0.3556   -0.8948 H         1 <0>         0.1004
      4 C3          0.7309   -0.5033    1.2229 C.2       1 <0>        -0.1659
      5 C4          2.0094   -0.9382    1.3349 C.2       1 <0>        -0.1327
      6 C5          2.4706   -1.3546    2.5701 C.2       1 <0>        -0.1427
      7 C6          1.6288   -1.3151    3.6332 C.2       1 <0>        -0.1120
      8 S1          0.1362   -0.6676    2.8981 S.3       1 <0>         0.1140
      9 Cl1         1.9274   -1.7696    5.2818 Cl        1 <0>         0.0291
     10 N1         -1.3723   -0.5112    0.0124 N.pl3     1 <0>        -1.1056
     11 S2         -2.1195   -0.9073   -1.4113 S.o2      1 <0>         2.7151
     12 O1         -3.4136   -1.3859   -1.0714 O.2       1 <0>        -0.9286
     13 O2         -1.9200    0.1888   -2.2934 O.2       1 <0>        -0.9276
     14 C7         -1.2421   -2.2724   -2.0979 C.2       1 <0>        -0.7204
     15 C8         -1.4519   -3.5994   -1.9183 C.2       1 <0>        -0.0232
     16 C9         -0.6295   -4.5019   -2.5663 C.2       1 <0>        -0.1126
     17 C10         0.3625   -4.0331   -3.3622 C.2       1 <0>        -0.2421
     18 S3          0.1490   -2.2666   -3.2169 S.3       1 <0>         0.2238
     19 C11         1.3784   -4.8033   -4.1659 C.3       1 <0>         0.0951
     20 N2          0.8446   -5.0635   -5.5095 N.4       1 <0>        -0.6381
     21 H2          1.0039    1.9031    0.0027 H         1 <0>         0.0806
     22 H3         -0.5459    1.8868   -0.8726 H         1 <0>         0.0853
     23 H4         -0.5289    1.8773    0.9072 H         1 <0>         0.0734
     24 H5          2.6585   -0.9597    0.4719 H         1 <0>         0.1423
     25 H6          3.4851   -1.7061    2.6868 H         1 <0>         0.1465
     26 H7         -1.8447   -0.6148    0.8533 H         1 <0>         0.4268
     27 H8         -2.2495   -3.9465   -1.2781 H         1 <0>         0.1642
     28 H9         -0.7749   -5.5645   -2.4400 H         1 <0>         0.1565
     29 H10         2.2959   -4.2204   -4.2460 H         1 <0>         0.1513
     30 H11         1.5918   -5.7502   -3.6700 H         1 <0>         0.1579
     31 H12         1.5248   -5.5792   -6.0475 H         1 <0>         0.4449
     32 H13        -0.0047   -5.6032   -5.4353 H         1 <0>         0.4390
     33 H14         0.6472   -4.1870   -5.9685 H         1 <0>         0.4375
@<TRIPOS>BOND
     1    1    2 1
     2    1   21 1
     3    1   22 1
     4    1   23 1
     5    2    3 1
     6    2    4 1
     7    2   10 1
     8    4    8 1
     9    4    5 2
    10    5    6 1
    11    5   24 1
    12    6    7 2
    13    6   25 1
    14    7    8 1
    15    7    9 1
    16   10   11 1
    17   10   26 1
    18   11   12 2
    19   11   13 2
    20   11   14 1
    21   14   18 1
    22   14   15 2
    23   15   16 1
    24   15   27 1
    25   16   17 2
    26   16   28 1
    27   17   18 1
    28   17   19 1
    29   19   20 1
    30   19   29 1
    31   19   30 1
    32   20   31 1
    33   20   32 1
    34   20   33 1
@<TRIPOS>MOLECULE
ZINC59171166
   41    43     0     0     0
SMALL
USER_CHARGES

@<TRIPOS>ATOM
      1 C1          1.2468    2.3799   -0.6127 C.3       1 <0>        -0.1561
      2 C2          1.0081    0.8718   -0.5139 C.3       1 <0>         0.0510
      3 O1          1.6056    0.2205   -1.6367 O.3       1 <0>        -0.3066
      4 C3          1.4842   -1.1315   -1.7023 C.ar      1 <0>         0.1566
      5 C4          0.7979   -1.8157   -0.7072 C.ar      1 <0>        -0.1718
      6 C5          0.6704   -3.1912   -0.7681 C.ar      1 <0>        -0.0569
      7 C6          1.2247   -3.8940   -1.8181 C.ar      1 <0>        -0.1280
      8 C7          1.9170   -3.2148   -2.8240 C.ar      1 <0>         0.0667
      9 C8          2.0397   -1.8251   -2.7634 C.ar      1 <0>        -0.1291
     10 N1          2.4683   -3.9078   -3.8660 N.pl3     1 <0>        -0.4443
     11 C9          3.1454   -5.0124   -3.6365 C.2       1 <0>         0.5154
     12 C10         3.6346   -5.8533   -4.7472 C.2       1 <0>        -0.2414
     13 C11         4.7434   -6.6516   -4.5025 C.2       1 <0>         0.1374
     14 C12         5.3094   -6.6312   -3.2022 C.ar      1 <0>        -0.1914
     15 C13         6.5404   -7.2574   -2.9545 C.ar      1 <0>        -0.0004
     16 C14         7.0958   -7.1960   -1.7104 C.ar      1 <0>        -0.1552
     17 C15         6.4458   -6.5216   -0.6782 C.ar      1 <0>         0.2262
     18 C16         5.2192   -5.9134   -0.8990 C.ar      1 <0>        -0.1575
     19 C17         4.6376   -5.9725   -2.1544 C.ar      1 <0>         0.1651
     20 O2          3.4235   -5.4158   -2.3701 O.3       1 <0>        -0.1982
     21 O3          7.0168   -6.4601    0.5513 O.3       1 <0>        -0.4791
     22 C18         2.9732   -5.8457   -6.0599 C.2       1 <0>         0.3926
     23 S1          1.5183   -4.9709   -6.2804 S.2       1 <0>        -0.5172
     24 N2          3.5123   -6.5275   -7.0900 N.pl3     1 <0>        -0.7366
     25 H1          2.3185    2.5784   -0.6199 H         1 <0>         0.0693
     26 H2          0.8008    2.7589   -1.5322 H         1 <0>         0.0704
     27 H3          0.7910    2.8767    0.2438 H         1 <0>         0.0864
     28 H4          1.4540    0.4928    0.4057 H         1 <0>         0.0692
     29 H5         -0.0636    0.6733   -0.5067 H         1 <0>         0.0703
     30 H6          0.3624   -1.2712    0.1176 H         1 <0>         0.1473
     31 H7          0.1355   -3.7171    0.0088 H         1 <0>         0.1492
     32 H8          1.1239   -4.9684   -1.8622 H         1 <0>         0.1388
     33 H9          2.5700   -1.2937   -3.5398 H         1 <0>         0.1502
     34 H10         5.1634   -7.2715   -5.2808 H         1 <0>         0.1820
     35 H11         7.0470   -7.7873   -3.7476 H         1 <0>         0.1653
     36 H12         8.0462   -7.6738   -1.5235 H         1 <0>         0.1635
     37 H13         4.7189   -5.3954   -0.0942 H         1 <0>         0.1682
     38 H14         7.5944   -5.6950    0.6789 H         1 <0>         0.4189
     39 H15         4.3367   -7.0232   -6.9651 H         1 <0>         0.4084
     40 H16         3.0759   -6.5225   -7.9562 H         1 <0>         0.4418
     41 H17         2.3602   -3.5850   -4.7743 H         1 <0>         0.4594
@<TRIPOS>BOND
     1    1    2 1
     2    1   25 1
     3    1   26 1
     4    1   27 1
     5    2    3 1
     6    2   28 1
     7    2   29 1
     8    3    4 1
     9    4    9 ar
    10    4    5 ar
    11    5    6 ar
    12    5   30 1
    13    6    7 ar
    14    6   31 1
    15    7    8 ar
    16    7   32 1
    17    8    9 ar
    18    8   10 1
    19    9   33 1
    20   10   11 2
    21   10   41 1
    22   11   20 1
    23   11   12 1
    24   12   13 2
    25   12   22 1
    26   13   14 1
    27   13   34 1
    28   14   19 ar
    29   14   15 ar
    30   15   16 ar
    31   15   35 1
    32   16   17 ar
    33   16   36 1
    34   17   18 ar
    35   17   21 1
    36   18   19 ar
    37   18   37 1
    38   19   20 1
    39   21   38 1
    40   22   23 2
    41   22   24 1
    42   24   39 1
    43   24   40 1
@<TRIPOS>MOLECULE
ZINC03682911
   39    42     0     0     0
SMALL
USER_CHARGES
amino-bromo-methyl-dioxo-BLAHcarbonitrile
@<TRIPOS>ATOM
      1 C1          1.4225    3.5442   -0.0921 C.3       1 <0>        -0.1481
      2 C2          1.4242    2.0170   -0.0007 C.3       1 <0>        -0.0858
      3 H1          1.9330    1.7023    0.9104 H         1 <0>         0.0910
      4 C3          2.1405    1.4299   -1.2184 C.3       1 <0>        -0.0786
      5 C4          2.1084   -0.0786   -1.1482 C.2       1 <0>         0.1877
      6 C5          1.0713   -0.7168   -0.5731 C.2       1 <0>        -0.2575
      7 C6          0.0021   -0.0041    0.0020 C.2       1 <0>         0.4024
      8 O1         -0.9213   -0.6153    0.5013 O.2       1 <0>        -0.4465
      9 C7         -0.0183    1.5002    0.0103 C.3       1 <0>        -0.1526
     10 C8          1.0289   -2.2226   -0.5376 C.3       1 <0>         0.0987
     11 C9          1.3170   -2.7296    0.8409 C.ar      1 <0>        -0.1363
     12 C10         2.4319   -2.6108    1.6424 C.ar      1 <0>        -0.0171
     13 C11         2.3746   -3.2121    2.8960 C.ar      1 <0>        -0.1238
     14 C12         1.2505   -3.8967    3.3138 C.ar      1 <0>        -0.0486
     15 C13         0.1261   -4.0195    2.5128 C.ar      1 <0>        -0.1382
     16 C14         0.1708   -3.4199    1.2530 C.ar      1 <0>         0.1877
     17 N1         -0.7940   -3.3853    0.2616 N.am      1 <0>        -0.6487
     18 C15        -0.3785   -2.7025   -0.8254 C.2       1 <0>         0.5550
     19 O2         -1.0122   -2.5098   -1.8414 O.2       1 <0>        -0.4826
     20 Br1         3.8670   -3.0897    4.0509 Br        1 <0>        -0.0483
     21 C16         1.9860   -2.8037   -1.5369 C.2       1 <0>        -0.2549
     22 C17         2.9822   -2.0394   -2.0505 C.2       1 <0>         0.4434
     23 O3          3.1400   -0.7591   -1.6809 O.3       1 <0>        -0.2336
     24 N2          3.8455   -2.5864   -2.9670 N.pl3     1 <0>        -0.8206
     25 C18         1.8472   -4.1680   -1.9494 C.1       1 <0>         0.2649
     26 N3          1.7370   -5.2503   -2.2766 N.1       1 <0>        -0.4221
     27 H2          0.8960    3.9591    0.7675 H         1 <0>         0.0679
     28 H3          2.4496    3.9089   -0.0997 H         1 <0>         0.0664
     29 H4          0.9206    3.8528   -1.0092 H         1 <0>         0.0631
     30 H5          3.1758    1.7707   -1.2294 H         1 <0>         0.1094
     31 H6          1.6403    1.7615   -2.1283 H         1 <0>         0.1142
     32 H7         -0.4992    1.8371   -0.7992 H         1 <0>         0.0978
     33 H8         -0.5257    1.8534    0.9081 H         1 <0>         0.1059
     34 H9          3.3099   -2.0753    1.3126 H         1 <0>         0.1413
     35 H10         1.2472   -4.3497    4.2942 H         1 <0>         0.1387
     36 H11        -0.7482   -4.5571    2.8491 H         1 <0>         0.1455
     37 H12        -1.6660   -3.8031    0.3388 H         1 <0>         0.4183
     38 H13         3.7399   -3.5109   -3.2412 H         1 <0>         0.4289
     39 H14         4.5611   -2.0485   -3.3404 H         1 <0>         0.4157
@<TRIPOS>BOND
     1    1    2 1
     2    1   27 1
     3    1   28 1
     4    1   29 1
     5    2    3 1
     6    2    9 1
     7    2    4 1
     8    4    5 1
     9    4   30 1
    10    4   31 1
    11    5   23 1
    12    5    6 2
    13    6    7 1
    14    6   10 1
    15    7    8 2
    16    7    9 1
    17    9   32 1
    18    9   33 1
    19   10   18 1
    20   10   11 1
    21   10   21 1
    22   11   16 ar
    23   11   12 ar
    24   12   13 ar
    25   12   34 1
    26   13   14 ar
    27   13   20 1
    28   14   15 ar
    29   14   35 1
    30   15   16 ar
    31   15   36 1
    32   16   17 1
    33   17   18 am
    34   17   37 1
    35   18   19 2
    36   21   22 2
    37   21   25 1
    38   22   23 1
    39   22   24 1
    40   24   38 1
    41   24   39 1
    42   25   26 3
@<TRIPOS>MOLECULE
ZINC13692037
   39    42     0     0     0
SMALL
USER_CHARGES
5-amino-4-(1,3-benzothiazol-2-yl)-1-[(4-hydroxyphenyl)methyleneamino]-2H-pyrrol-3-one
@<TRIPOS>ATOM
      1 C1         -1.2456    1.7690    0.0149 C.ar      1 <0>        -0.1069
      2 C2         -0.0414    1.0799    0.0017 C.ar      1 <0>        -0.1125
      3 C3          1.1454    1.7899   -0.0071 C.ar      1 <0>        -0.0589
      4 C4          1.1144    3.1620    0.0031 C.ar      1 <0>        -0.1697
      5 C5         -0.0930    3.8979    0.0225 C.ar      1 <0>         0.1007
      6 C6         -1.2869    3.1386    0.0311 C.ar      1 <0>        -0.0806
      7 N1          0.0393    5.2402    0.0309 N.2       1 <0>        -0.5663
      8 C7          1.2160    5.8339    0.0217 C.2       1 <0>         0.2849
      9 S1          2.3421    4.4463   -0.0016 S.3       1 <0>         0.0215
     10 C8          1.5241    7.2735    0.0288 C.2       1 <0>        -0.3771
     11 C9          0.5784    8.2960    0.0418 C.2       1 <0>         0.5959
     12 N2          1.1677    9.5211    0.0500 N.pl3     1 <0>        -0.4549
     13 C10         2.6239    9.3260    0.0311 C.3       1 <0>         0.0368
     14 C11         2.8178    7.8246    0.0175 C.2       1 <0>         0.4191
     15 O1          3.8728    7.2208   -0.0000 O.2       1 <0>        -0.4576
     16 N3          0.5027   10.7542    0.0672 N.2       1 <0>        -0.2400
     17 C12         1.1813   11.8563    0.1686 C.2       1 <0>         0.1451
     18 C13         0.4783   13.1453    0.2992 C.ar      1 <0>        -0.0790
     19 C14        -0.9186   13.1840    0.3084 C.ar      1 <0>        -0.0578
     20 C15        -1.5714   14.3909    0.4360 C.ar      1 <0>        -0.1518
     21 C16        -0.8433   15.5687    0.5448 C.ar      1 <0>         0.1334
     22 C17         0.5452   15.5357    0.5303 C.ar      1 <0>        -0.1497
     23 C18         1.2067   14.3330    0.4084 C.ar      1 <0>        -0.0626
     24 O2         -1.4912   16.7567    0.6652 O.3       1 <0>        -0.4984
     25 N4         -0.7718    8.0932    0.0497 N.pl3     1 <0>        -0.7966
     26 H1         -2.1716    1.2132    0.0169 H         1 <0>         0.1306
     27 H2         -0.0310   -0.0000   -0.0061 H         1 <0>         0.1353
     28 H3          2.0908    1.2679   -0.0216 H         1 <0>         0.1304
     29 H4         -2.2413    3.6440    0.0459 H         1 <0>         0.1279
     30 H5          3.0276    9.7504    0.8416 H         1 <0>         0.1069
     31 H6          3.0559    9.7719   -0.8649 H         1 <0>         0.1182
     32 H7          2.2609   11.8287    0.1572 H         1 <0>         0.1343
     33 H8         -1.4856   12.2692    0.2194 H         1 <0>         0.1372
     34 H9         -2.6509   14.4213    0.4477 H         1 <0>         0.1360
     35 H10         1.1073   16.4541    0.6144 H         1 <0>         0.1381
     36 H11         2.2864   14.3083    0.3969 H         1 <0>         0.1374
     37 H12        -1.6859   17.1858   -0.1792 H         1 <0>         0.3975
     38 H13        -1.1267    7.1934    0.1226 H         1 <0>         0.4387
     39 H14        -1.3762    8.8490   -0.0177 H         1 <0>         0.4147
@<TRIPOS>BOND
     1    1    6 ar
     2    1    2 ar
     3    1   26 1
     4    2    3 ar
     5    2   27 1
     6    3    4 ar
     7    3   28 1
     8    4    9 1
     9    4    5 ar
    10    5    6 ar
    11    5    7 1
    12    6   29 1
    13    7    8 2
    14    8    9 1
    15    8   10 1
    16   10   14 1
    17   10   11 2
    18   11   12 1
    19   11   25 1
    20   12   13 1
    21   12   16 1
    22   13   14 1
    23   13   30 1
    24   13   31 1
    25   14   15 2
    26   16   17 2
    27   17   18 1
    28   17   32 1
    29   18   23 ar
    30   18   19 ar
    31   19   20 ar
    32   19   33 1
    33   20   21 ar
    34   20   34 1
    35   21   22 ar
    36   21   24 1
    37   22   23 ar
    38   22   35 1
    39   23   36 1
    40   24   37 1
    41   25   38 1
    42   25   39 1
@<TRIPOS>MOLECULE
ZINC39543023
   48    51     0     0     0
SMALL
NO_CHARGES

@<TRIPOS>ATOM
      1 C1         -0.0452    1.3944    0.0392 C.3       1 <0>         0.0620
      2 N1          0.0501   -0.0651   -0.0449 N.am      1 <0>        -0.5620
      3 C2          0.1107   -0.8319    1.1264 C.ar      1 <0>         0.1036
      4 C3         -1.0566   -1.2960    1.7150 C.ar      1 <0>        -0.0938
      5 C4         -0.9943   -2.0520    2.8701 C.ar      1 <0>        -0.1197
      6 C5          0.2295   -2.3477    3.4419 C.ar      1 <0>        -0.0966
      7 C6          1.3970   -1.8883    2.8613 C.ar      1 <0>        -0.1395
      8 C7          1.3435   -1.1349    1.6997 C.ar      1 <0>         0.1158
      9 O1          2.4913   -0.6878    1.1239 O.3       1 <0>        -0.4902
     10 C8          0.0795   -0.6703   -1.2488 C.2       1 <0>         0.5232
     11 O2          0.1583   -1.8786   -1.3184 O.2       1 <0>        -0.5178
     12 C9          0.0143    0.1544   -2.5084 C.3       1 <0>        -0.0423
     13 H1          0.8479    0.8555   -2.5481 H         1 <0>         0.1342
     14 C10        -1.3278    0.9065   -2.5922 C.3       1 <0>        -0.0445
     15 C11        -1.9569    0.3977   -3.8695 C.2       1 <0>        -0.0398
     16 C12        -1.1607   -0.4826   -4.4260 C.2       1 <0>         0.0374
     17 N2         -1.3854   -1.1521   -5.6536 N.pl3     1 <0>        -0.6624
     18 C13        -0.2324   -1.3697   -6.4258 C.ar      1 <0>         0.1517
     19 C14        -0.3462   -1.9143   -7.6971 C.ar      1 <0>        -0.1658
     20 C15         0.7883   -2.1372   -8.4530 C.ar      1 <0>        -0.1007
     21 C16         2.0314   -1.8173   -7.9378 C.ar      1 <0>        -0.1812
     22 C17         2.1444   -1.2711   -6.6742 C.ar      1 <0>        -0.0648
     23 C18         1.0126   -1.0381   -5.9099 C.ar      1 <0>        -0.2006
     24 C19         1.1682   -0.4167   -4.5470 C.3       1 <0>        -0.0063
     25 N3          0.0159   -0.7162   -3.6952 N.4       1 <0>        -0.2889
     26 O3         -3.1616    0.7916   -4.3638 O.3       1 <0>        -0.3013
     27 C20        -3.5640    0.2311   -5.6152 C.3       1 <0>         0.0271
     28 H2          0.9566    1.8238    0.0512 H         1 <0>         0.0640
     29 H3         -0.5925    1.7731   -0.8240 H         1 <0>         0.0875
     30 H4         -0.5705    1.6722    0.9530 H         1 <0>         0.0802
     31 H5         -2.0138   -1.0663    1.2708 H         1 <0>         0.1288
     32 H6         -1.9038   -2.4125    3.3276 H         1 <0>         0.1316
     33 H7          0.2734   -2.9389    4.3447 H         1 <0>         0.1318
     34 H8          2.3511   -2.1204    3.3108 H         1 <0>         0.1340
     35 H9          2.7792    0.1788    1.4419 H         1 <0>         0.3878
     36 H10        -1.9555    0.6640   -1.7347 H         1 <0>         0.0890
     37 H11        -1.1597    1.9818   -2.6515 H         1 <0>         0.1014
     38 H12        -1.3192   -2.1634   -8.0943 H         1 <0>         0.1130
     39 H13         0.7048   -2.5603   -9.4432 H         1 <0>         0.1154
     40 H14         2.9188   -1.9954   -8.5271 H         1 <0>         0.1125
     41 H15         3.1193   -1.0252   -6.2800 H         1 <0>         0.1134
     42 H16         2.0702   -0.8079   -4.0764 H         1 <0>         0.0815
     43 H17         1.2622    0.6638   -4.6552 H         1 <0>         0.0892
     44 H18        -3.7494   -0.8360   -5.4927 H         1 <0>         0.0460
     45 H19        -4.4757    0.7215   -5.9566 H         1 <0>         0.0948
     46 H20        -2.7738    0.3805   -6.3510 H         1 <0>         0.0609
     47 H21        -2.2672   -1.4385   -5.9389 H         1 <0>         0.4123
     48 H22         0.0521   -1.6827   -3.4077 H         1 <0>         0.3882
@<TRIPOS>BOND
     1    1    2 1
     2    1   28 1
     3    1   29 1
     4    1   30 1
     5    2    3 1
     6    2   10 am
     7    3    8 ar
     8    3    4 ar
     9    4    5 ar
    10    4   31 1
    11    5    6 ar
    12    5   32 1
    13    6    7 ar
    14    6   33 1
    15    7    8 ar
    16    7   34 1
    17    8    9 1
    18    9   35 1
    19   10   11 2
    20   10   12 1
    21   12   13 1
    22   12   25 1
    23   12   14 1
    24   14   15 1
    25   14   36 1
    26   14   37 1
    27   15   16 2
    28   15   26 1
    29   16   25 1
    30   16   17 1
    31   17   18 1
    32   17   47 1
    33   18   23 ar
    34   18   19 ar
    35   19   20 ar
    36   19   38 1
    37   20   21 ar
    38   20   39 1
    39   21   22 ar
    40   21   40 1
    41   22   23 ar
    42   22   41 1
    43   23   24 1
    44   24   25 1
    45   24   42 1
    46   24   43 1
    47   25   48 1
    48   26   27 1
    49   27   44 1
    50   27   45 1
    51   27   46 1
@<TRIPOS>MOLECULE
ZINC60804566
   33    34     0     0     0
SMALL
USER_CHARGES

@<TRIPOS>ATOM
      1 C1          0.2646    1.4496    0.0330 C.3       1 <0>         0.0523
      2 N1          0.1378   -0.0098    0.0130 N.am      1 <0>        -0.5427
      3 C2         -1.1060   -0.5738    0.0277 C.2       1 <0>         0.5650
      4 C3         -1.2175   -1.9748    0.0079 C.2       1 <0>        -0.4582
      5 C4          0.0221   -2.7616   -0.0280 C.2       1 <0>         0.5834
      6 O1         -0.0145   -3.9780   -0.0468 O.2       1 <0>        -0.5083
      7 N2          1.2021   -2.1079   -0.0402 N.am      1 <0>        -0.6579
      8 H1          2.0293   -2.6138   -0.0638 H         1 <0>         0.4376
      9 C5          1.2462   -0.7658   -0.0251 C.2       1 <0>         0.7170
     10 O2          2.3298   -0.2155   -0.0415 O.2       1 <0>        -0.5223
     11 C6         -2.4800   -2.6052    0.0224 C.2       1 <0>         0.4465
     12 O3         -3.4925   -1.9388   -0.0553 O.2       1 <0>        -0.4872
     13 C7         -2.5720   -4.1053    0.1342 C.3       1 <0>         0.0271
     14 O4         -3.9454   -4.5001    0.1278 O.3       1 <0>        -0.2907
     15 C8         -4.2053   -5.8306    0.2223 C.ar      1 <0>         0.1601
     16 C9         -3.1600   -6.7368    0.3248 C.ar      1 <0>        -0.1990
     17 C10        -3.4264   -8.0902    0.4208 C.ar      1 <0>         0.0170
     18 C11        -4.7346   -8.5409    0.4141 C.ar      1 <0>        -0.1421
     19 C12        -5.7785   -7.6385    0.3115 C.ar      1 <0>         0.0141
     20 C13        -5.5163   -6.2839    0.2220 C.ar      1 <0>        -0.1398
     21 Cl1        -7.4188   -8.2070    0.3029 Cl        1 <0>        -0.0464
     22 Cl2        -2.1187   -9.2248    0.5491 Cl        1 <0>        -0.0497
     23 N3         -2.2191    0.2079    0.0616 N.pl3     1 <0>        -0.7867
     24 H2          1.3196    1.7229    0.0125 H         1 <0>         0.1219
     25 H3         -0.2367    1.8698   -0.8389 H         1 <0>         0.0892
     26 H4         -0.1948    1.8417    0.9404 H         1 <0>         0.0884
     27 H5         -2.0579   -4.5648   -0.7100 H         1 <0>         0.1096
     28 H6         -2.1050   -4.4296    1.0642 H         1 <0>         0.1028
     29 H7         -2.1387   -6.3855    0.3293 H         1 <0>         0.1511
     30 H8         -4.9411   -9.5983    0.4888 H         1 <0>         0.1465
     31 H9         -6.3315   -5.5795    0.1468 H         1 <0>         0.1497
     32 H10        -2.1338    1.1695    0.1564 H         1 <0>         0.4094
     33 H11        -3.0980   -0.1964   -0.0091 H         1 <0>         0.4423
@<TRIPOS>BOND
     1    1    2 1
     2    1   24 1
     3    1   25 1
     4    1   26 1
     5    2    9 am
     6    2    3 1
     7    3    4 2
     8    3   23 1
     9    4    5 1
    10    4   11 1
    11    5    6 2
    12    5    7 am
    13    7    8 1
    14    7    9 am
    15    9   10 2
    16   11   12 2
    17   11   13 1
    18   13   14 1
    19   13   27 1
    20   13   28 1
    21   14   15 1
    22   15   20 ar
    23   15   16 ar
    24   16   17 ar
    25   16   29 1
    26   17   18 ar
    27   17   22 1
    28   18   19 ar
    29   18   30 1
    30   19   20 ar
    31   19   21 1
    32   20   31 1
    33   23   32 1
    34   23   33 1
@<TRIPOS>MOLECULE
ZINC66402070
   39    41     0     0     0
SMALL
USER_CHARGES

@<TRIPOS>ATOM
      1 C1         -0.3416    1.4630    0.6183 C.ar      1 <0>        -0.1438
      2 C2          0.8633    2.1088    0.4198 C.ar      1 <0>        -0.0628
      3 C3          2.0340    1.3806    0.2884 C.ar      1 <0>        -0.1711
      4 C4          1.9971   -0.0008    0.3584 C.ar      1 <0>         0.1503
      5 C5          0.7810   -0.6490    0.5557 C.ar      1 <0>        -0.0714
      6 C6         -0.3830    0.0828    0.6853 C.ar      1 <0>        -0.0728
      7 Cl1         0.7276   -2.3821    0.6391 Cl        1 <0>        -0.0556
      8 O1          3.1225   -0.7537    0.2458 O.3       1 <0>        -0.3029
      9 C7          4.2837   -0.1392   -0.3144 C.3       1 <0>         0.0654
     10 C8          4.5095    1.2035    0.3923 C.3       1 <0>        -0.1681
     11 C9          3.3283    2.1217    0.0682 C.3       1 <0>         0.2129
     12 H1          3.3914    2.4403   -0.9723 H         1 <0>         0.1072
     13 N1          3.3713    3.2977    0.9407 N.am      1 <0>        -0.7315
     14 C10         2.7939    4.4503    0.5472 C.2       1 <0>         0.7133
     15 O2          2.2374    4.5139   -0.5320 O.2       1 <0>        -0.5599
     16 N2          2.8335    5.5322    1.3499 N.am      1 <0>        -0.6737
     17 C11         2.3278    6.7593    0.8979 C.2       1 <0>         0.0578
     18 C12         1.3228    7.3876    1.5808 C.2       1 <0>        -0.0071
     19 C13         0.8357    8.6142    1.1073 C.2       1 <0>        -0.2839
     20 C14         1.3588    9.1635   -0.0126 C.2       1 <0>         0.2054
     21 N3          2.3574    8.5405   -0.6930 N.am      1 <0>        -0.5964
     22 H2          2.7197    8.9502   -1.4941 H         1 <0>         0.4288
     23 C15         2.8538    7.3643   -0.2642 C.2       1 <0>         0.5237
     24 O3          3.7542    6.8194   -0.8825 O.2       1 <0>        -0.5053
     25 C16        -0.2715    9.3207    1.8462 C.3       1 <0>         0.5303
     26 F1         -0.5840   10.5147    1.1875 F         1 <0>        -0.1769
     27 F2         -1.4037    8.4998    1.8857 F         1 <0>        -0.1714
     28 F3          0.1452    9.6034    3.1514 F         1 <0>        -0.1726
     29 H3         -1.2505    2.0364    0.7255 H         1 <0>         0.1333
     30 H4          0.8925    3.1871    0.3664 H         1 <0>         0.1378
     31 H5         -1.3249   -0.4228    0.8389 H         1 <0>         0.1397
     32 H6          5.1494   -0.7839   -0.1628 H         1 <0>         0.1190
     33 H7          4.1322    0.0281   -1.3807 H         1 <0>         0.0723
     34 H8          4.5682    1.0466    1.4693 H         1 <0>         0.0870
     35 H9          5.4349    1.6555    0.0354 H         1 <0>         0.0972
     36 H10         3.8153    3.2470    1.8016 H         1 <0>         0.4005
     37 H11         3.2118    5.4619    2.2403 H         1 <0>         0.4102
     38 H12         0.9089    6.9438    2.4742 H         1 <0>         0.1497
     39 H13         0.9782   10.1086   -0.3709 H         1 <0>         0.1854
@<TRIPOS>BOND
     1    1    6 ar
     2    1    2 ar
     3    1   29 1
     4    2    3 ar
     5    2   30 1
     6    3   11 1
     7    3    4 ar
     8    4    5 ar
     9    4    8 1
    10    5    6 ar
    11    5    7 1
    12    6   31 1
    13    8    9 1
    14    9   10 1
    15    9   32 1
    16    9   33 1
    17   10   11 1
    18   10   34 1
    19   10   35 1
    20   11   12 1
    21   11   13 1
    22   13   14 am
    23   13   36 1
    24   14   15 2
    25   14   16 am
    26   16   17 1
    27   16   37 1
    28   17   23 1
    29   17   18 2
    30   18   19 1
    31   18   38 1
    32   19   20 2
    33   19   25 1
    34   20   21 1
    35   20   39 1
    36   21   22 1
    37   21   23 am
    38   23   24 2
    39   25   26 1
    40   25   27 1
    41   25   28 1
@<TRIPOS>MOLECULE
ZINC06857342
   54    54     0     0     0
SMALL
USER_CHARGES
2-[2-chloro-6-methoxy-4-(1,1,3,3-tetramethylbutylaminomethyl)phenoxy]acetamide
@<TRIPOS>ATOM
      1 C1         -0.4358    2.7087    9.7591 C.3       1 <0>        -0.1876
      2 C2          0.4452    1.9806   10.7762 C.3       1 <0>        -0.0870
      3 C3         -0.0159    2.3296   12.1927 C.3       1 <0>        -0.1448
      4 C4          1.9010    2.4139   10.5925 C.3       1 <0>        -0.1686
      5 C5          0.3316    0.4702   10.5605 C.3       1 <0>        -0.1298
      6 C6          1.0171    0.0896    9.2467 C.3       1 <0>         0.0618
      7 C7          0.5818   -1.3177    8.8332 C.3       1 <0>        -0.1760
      8 C8          2.5351    0.1188    9.4363 C.3       1 <0>        -0.1952
      9 C9          1.2769    0.7127    6.9214 C.3       1 <0>         0.0342
     10 C10         0.8632    1.7147    5.8746 C.ar      1 <0>        -0.1121
     11 C11         1.6107    2.8624    5.6848 C.ar      1 <0>        -0.1799
     12 C12         1.2321    3.7851    4.7229 C.ar      1 <0>         0.1382
     13 C13         0.0991    3.5539    3.9489 C.ar      1 <0>         0.1023
     14 C14        -0.6489    2.4038    4.1471 C.ar      1 <0>        -0.0186
     15 C15        -0.2623    1.4842    5.1062 C.ar      1 <0>        -0.1130
     16 Cl1        -2.0672    2.1145    3.1887 Cl        1 <0>        -0.0152
     17 O1         -0.2767    4.4570    3.0038 O.3       1 <0>        -0.2863
     18 C16         0.2574    4.2815    1.6900 C.3       1 <0>         0.0459
     19 C17        -0.2659    5.3675    0.7857 C.2       1 <0>         0.5204
     20 O2         -1.0219    6.2089    1.2232 O.2       1 <0>        -0.5125
     21 N1          0.1060    5.4036   -0.5092 N.am      1 <0>        -0.8489
     22 O3          1.9666    4.9141    4.5354 O.3       1 <0>        -0.2903
     23 C18         3.1168    5.0853    5.3660 C.3       1 <0>         0.0187
     24 H1         -1.4377    2.2796    9.7732 H         1 <0>         0.0846
     25 H2         -0.4900    3.7665   10.0167 H         1 <0>         0.0919
     26 H3         -0.0075    2.5989    8.7628 H         1 <0>         0.0442
     27 H4          0.6118    1.8109   12.9173 H         1 <0>         0.0675
     28 H5          0.0650    3.4057   12.3464 H         1 <0>         0.0684
     29 H6         -1.0531    2.0209   12.3235 H         1 <0>         0.0659
     30 H7          2.1564    2.3896    9.5331 H         1 <0>         0.0456
     31 H8          2.0295    3.4268   10.9741 H         1 <0>         0.0775
     32 H9          2.5543    1.7340   11.1394 H         1 <0>         0.0828
     33 H10        -0.7202    0.1875   10.5166 H         1 <0>         0.0944
     34 H11         0.8140   -0.0522   11.3866 H         1 <0>         0.1134
     35 H12         1.1933   -1.6561    7.9967 H         1 <0>         0.0840
     36 H13         0.7082   -1.9990    9.6746 H         1 <0>         0.1059
     37 H14        -0.4661   -1.3006    8.5338 H         1 <0>         0.0805
     38 H15         2.8933    1.1440    9.3421 H         1 <0>         0.0944
     39 H16         2.7850   -0.2639   10.4258 H         1 <0>         0.1047
     40 H17         3.0082   -0.5027    8.6761 H         1 <0>         0.0822
     41 H18         0.9686   -0.2856    6.6107 H         1 <0>         0.1432
     42 H19         2.3601    0.7378    7.0404 H         1 <0>         0.1405
     43 H20         2.4897    3.0399    6.2867 H         1 <0>         0.1474
     44 H21        -0.8434    0.5865    5.2573 H         1 <0>         0.1506
     45 H22        -0.0446    3.3087    1.3020 H         1 <0>         0.0895
     46 H23         1.3454    4.3349    1.7299 H         1 <0>         0.0918
     47 H24         0.7106    4.7306   -0.8591 H         1 <0>         0.4036
     48 H25        -0.2308    6.1027   -1.0912 H         1 <0>         0.4129
     49 H26         3.6107    6.0236    5.1139 H         1 <0>         0.1150
     50 H27         2.8100    5.1057    6.4118 H         1 <0>         0.0601
     51 H28         3.8070    4.2569    5.2060 H         1 <0>         0.0626
     52 N2          0.6293    1.0557    8.2016 N.4       1 <0>        -0.5278
     53 H29         0.9206    1.9981    8.4867 H         1 <0>         0.4369
     54 H30        -0.3902    1.0341    8.0819 H         1 <0>         0.4303
@<TRIPOS>BOND
     1    1    2 1
     2    1   24 1
     3    1   25 1
     4    1   26 1
     5    2    3 1
     6    2    4 1
     7    2    5 1
     8    3   27 1
     9    3   28 1
    10    3   29 1
    11    4   30 1
    12    4   31 1
    13    4   32 1
    14    5    6 1
    15    5   33 1
    16    5   34 1
    17    6    7 1
    18    6    8 1
    19    6   52 1
    20    7   35 1
    21    7   36 1
    22    7   37 1
    23    8   38 1
    24    8   39 1
    25    8   40 1
    26    9   10 1
    27    9   41 1
    28    9   42 1
    29    9   52 1
    30   10   15 ar
    31   10   11 ar
    32   11   12 ar
    33   11   43 1
    34   12   13 ar
    35   12   22 1
    36   13   14 ar
    37   13   17 1
    38   14   15 ar
    39   14   16 1
    40   15   44 1
    41   17   18 1
    42   18   19 1
    43   18   45 1
    44   18   46 1
    45   19   20 2
    46   19   21 am
    47   21   47 1
    48   21   48 1
    49   22   23 1
    50   23   49 1
    51   23   50 1
    52   23   51 1
    53   52   53 1
    54   52   54 1
@<TRIPOS>MOLECULE
ZINC40297450
   48    48     0     0     0
SMALL
USER_CHARGES

@<TRIPOS>ATOM
      1 C1          0.0823    1.4510   -0.2163 C.3       1 <0>        -0.1881
      2 C2          0.0237   -0.0664   -0.0289 C.3       1 <0>        -0.0163
      3 N1         -1.3740   -0.4850    0.1418 N.4       1 <0>        -0.3867
      4 C3         -2.1159   -0.2330   -1.1009 C.3       1 <0>        -0.0148
      5 C4         -3.5996   -0.5332   -0.8788 C.3       1 <0>        -0.1883
      6 C5         -1.4206   -1.9189    0.4577 C.3       1 <0>        -0.0145
      7 C6         -0.7562   -2.1642    1.8139 C.3       1 <0>        -0.1515
      8 C7         -0.8047   -3.6576    2.1429 C.3       1 <0>        -0.1247
      9 C8         -0.1402   -3.9029    3.4991 C.3       1 <0>         0.1430
     10 H1         -0.6138   -3.2758    4.2544 H         1 <0>         0.0948
     11 C9         -0.2985   -5.3747    3.8858 C.3       1 <0>        -0.1699
     12 N2          1.2841   -3.5713    3.4121 N.am      1 <0>        -0.7272
     13 C10         1.9629   -3.2189    4.5218 C.2       1 <0>         0.5610
     14 O1          1.3934   -3.1763    5.5949 O.2       1 <0>        -0.5219
     15 C11         3.4001   -2.8843    4.4341 C.ar      1 <0>        -0.0771
     16 C12         4.0550   -2.9270    3.2017 C.ar      1 <0>        -0.1496
     17 C13         5.3963   -2.6144    3.1219 C.ar      1 <0>        -0.0455
     18 C14         6.0969   -2.2574    4.2602 C.ar      1 <0>        -0.1537
     19 C15         5.4534   -2.2120    5.4924 C.ar      1 <0>         0.2459
     20 C16         4.1047   -2.5193    5.5814 C.ar      1 <0>        -0.1318
     21 N3          6.1654   -1.8517    6.6398 N.pl3     1 <0>        -0.8630
     22 Br1         7.9352   -1.8306    4.1405 Br        1 <0>        -0.0361
     23 H2          1.1228    1.7753   -0.2311 H         1 <0>         0.1062
     24 H3         -0.3953    1.7194   -1.1586 H         1 <0>         0.0807
     25 H4         -0.4388    1.9392    0.6072 H         1 <0>         0.0795
     26 H5          0.4455   -0.5574   -0.9059 H         1 <0>         0.1295
     27 H6          0.5971   -0.3457    0.8550 H         1 <0>         0.1310
     28 H7         -1.9958    0.8109   -1.3904 H         1 <0>         0.1317
     29 H8         -1.7294   -0.8761   -1.8915 H         1 <0>         0.1290
     30 H9         -4.1656   -0.2421   -1.7637 H         1 <0>         0.1061
     31 H10        -3.7314   -1.6000   -0.6980 H         1 <0>         0.0805
     32 H11        -3.9590    0.0285   -0.0166 H         1 <0>         0.0796
     33 H12        -2.4588   -2.2488    0.4968 H         1 <0>         0.1335
     34 H13        -0.8905   -2.4782   -0.3132 H         1 <0>         0.1300
     35 H14         0.2820   -1.8343    1.7748 H         1 <0>         0.0876
     36 H15        -1.2864   -1.6049    2.5847 H         1 <0>         0.0898
     37 H16        -1.8428   -3.9875    2.1820 H         1 <0>         0.0935
     38 H17        -0.2745   -4.2169    1.3720 H         1 <0>         0.0819
     39 H18         0.1751   -6.0018    3.1304 H         1 <0>         0.0612
     40 H19         0.1749   -5.5495    4.8519 H         1 <0>         0.0683
     41 H20        -1.3582   -5.6215    3.9505 H         1 <0>         0.0705
     42 H21         1.7386   -3.6053    2.5558 H         1 <0>         0.3990
     43 H22         3.5116   -3.2052    2.3108 H         1 <0>         0.1269
     44 H23         5.9012   -2.6487    2.1678 H         1 <0>         0.1392
     45 H24         3.6022   -2.4807    6.5365 H         1 <0>         0.1445
     46 H25         7.1084   -1.6333    6.5769 H         1 <0>         0.4067
     47 H26         5.7165   -1.8200    7.4991 H         1 <0>         0.4074
     48 H27        -1.7925    0.0392    0.8955 H         1 <0>         0.4222
@<TRIPOS>BOND
     1    1    2 1
     2    1   23 1
     3    1   24 1
     4    1   25 1
     5    2    3 1
     6    2   26 1
     7    2   27 1
     8    3    4 1
     9    3    6 1
    10    3   48 1
    11    4    5 1
    12    4   28 1
    13    4   29 1
    14    5   30 1
    15    5   31 1
    16    5   32 1
    17    6    7 1
    18    6   33 1
    19    6   34 1
    20    7    8 1
    21    7   35 1
    22    7   36 1
    23    8    9 1
    24    8   37 1
    25    8   38 1
    26    9   10 1
    27    9   11 1
    28    9   12 1
    29   11   39 1
    30   11   40 1
    31   11   41 1
    32   12   13 am
    33   12   42 1
    34   13   14 2
    35   13   15 1
    36   15   20 ar
    37   15   16 ar
    38   16   17 ar
    39   16   43 1
    40   17   18 ar
    41   17   44 1
    42   18   19 ar
    43   18   22 1
    44   19   20 ar
    45   19   21 1
    46   20   45 1
    47   21   46 1
    48   21   47 1
@<TRIPOS>MOLECULE
ZINC42737447
   36    36     0     0     0
SMALL
USER_CHARGES

@<TRIPOS>ATOM
      1 C1          1.2192   -0.4055    1.3678 C.3       1 <0>        -0.1895
      2 C2          0.3571    0.3800    0.3775 C.3       1 <0>        -0.0474
      3 N1          0.5618   -0.1497   -0.9774 N.4       1 <0>        -0.3711
      4 C3          1.9458    0.1048   -1.3987 C.3       1 <0>        -0.0362
      5 C4          2.1650    1.5898   -1.5330 C.2       1 <0>         0.5026
      6 O1          1.2307    2.3540   -1.4132 O.2       1 <0>        -0.5103
      7 N2          3.3991    2.0686   -1.7863 N.am      1 <0>        -0.6324
      8 C5          3.6232    3.4522   -1.8082 C.ar      1 <0>         0.0784
      9 C6          2.6047    4.3145   -2.1915 C.ar      1 <0>        -0.0587
     10 C7          2.8250    5.6772   -2.2132 C.ar      1 <0>        -0.1683
     11 C8          4.0659    6.1862   -1.8516 C.ar      1 <0>         0.2318
     12 C9          5.0849    5.3243   -1.4682 C.ar      1 <0>        -0.1551
     13 C10         4.8626    3.9610   -1.4411 C.ar      1 <0>        -0.0551
     14 Br1         6.2475    2.7873   -0.9117 Br        1 <0>        -0.0347
     15 N3          4.2891    7.5670   -1.8742 N.pl3     1 <0>        -0.8657
     16 C11         0.3070   -1.5964   -0.9812 C.3       1 <0>        -0.0646
     17 C12        -1.1726   -1.8545   -0.6894 C.3       1 <0>         0.4524
     18 F1         -1.9592   -1.1183   -1.5819 F         1 <0>        -0.1649
     19 F2         -1.4470   -3.2179   -0.8412 F         1 <0>        -0.1425
     20 F3         -1.4645   -1.4632    0.6216 F         1 <0>        -0.1602
     21 H1          0.8597   -1.4328    1.4272 H         1 <0>         0.0825
     22 H2          2.2554   -0.4021    1.0297 H         1 <0>         0.0804
     23 H3          1.1565    0.0589    2.3519 H         1 <0>         0.1161
     24 H4         -0.6932    0.2806    0.6516 H         1 <0>         0.1486
     25 H5          0.6413    1.4319    0.4031 H         1 <0>         0.1531
     26 H6          2.6323   -0.2978   -0.6539 H         1 <0>         0.1698
     27 H7          2.1279   -0.3776   -2.3590 H         1 <0>         0.1717
     28 H8          4.1323    1.4558   -1.9533 H         1 <0>         0.4192
     29 H9          1.6399    3.9190   -2.4730 H         1 <0>         0.1538
     30 H10         2.0326    6.3475   -2.5117 H         1 <0>         0.1369
     31 H11         6.0499    5.7199   -1.1874 H         1 <0>         0.1417
     32 H12         3.5773    8.1690   -2.1423 H         1 <0>         0.4064
     33 H13         5.1556    7.9224   -1.6217 H         1 <0>         0.4056
     34 H14         0.5618   -2.0077   -1.9579 H         1 <0>         0.1820
     35 H15         0.9172   -2.0749   -0.2151 H         1 <0>         0.1832
     36 H16        -0.0733    0.3053   -1.6159 H         1 <0>         0.4406
@<TRIPOS>BOND
     1    1    2 1
     2    1   21 1
     3    1   22 1
     4    1   23 1
     5    2    3 1
     6    2   24 1
     7    2   25 1
     8    3    4 1
     9    3   16 1
    10    3   36 1
    11    4    5 1
    12    4   26 1
    13    4   27 1
    14    5    6 2
    15    5    7 am
    16    7    8 1
    17    7   28 1
    18    8   13 ar
    19    8    9 ar
    20    9   10 ar
    21    9   29 1
    22   10   11 ar
    23   10   30 1
    24   11   12 ar
    25   11   15 1
    26   12   13 ar
    27   12   31 1
    28   13   14 1
    29   15   32 1
    30   15   33 1
    31   16   17 1
    32   16   34 1
    33   16   35 1
    34   17   18 1
    35   17   19 1
    36   17   20 1
@<TRIPOS>MOLECULE
ZINC45069052
   42    42     0     0     0
SMALL
USER_CHARGES

@<TRIPOS>ATOM
      1 C1         -0.0187    1.5258    0.0104 C.3       1 <0>        -0.1561
      2 C2          0.0021   -0.0041    0.0020 C.3       1 <0>        -0.1220
      3 C3         -1.4333   -0.5336    0.0129 C.3       1 <0>         0.0534
      4 O1         -1.4139   -1.9625    0.0050 O.3       1 <0>        -0.3233
      5 C4         -2.6164   -2.5960    0.0131 C.ar      1 <0>         0.1708
      6 C5         -3.7908   -1.8571    0.0225 C.ar      1 <0>        -0.1971
      7 C6         -5.0117   -2.5028    0.0308 C.ar      1 <0>        -0.0136
      8 C7         -5.0642   -3.8855    0.0296 C.ar      1 <0>        -0.1309
      9 C8         -3.8947   -4.6239    0.0207 C.ar      1 <0>        -0.0231
     10 C9         -2.6713   -3.9819    0.0062 C.ar      1 <0>        -0.1973
     11 C10        -1.3975   -4.7869   -0.0109 C.3       1 <0>         0.0585
     12 N1         -0.8414   -4.8525    1.3472 N.4       1 <0>        -0.5117
     13 C11         0.4003   -5.6372    1.3306 C.3       1 <0>        -0.0006
     14 C12         0.9794   -5.7056    2.7451 C.3       1 <0>        -0.1428
     15 C13         2.2727   -6.5228    2.7278 C.3       1 <0>        -0.6367
     16 S1          2.9593   -6.6039    4.4049 S.o2      1 <0>         2.6212
     17 O2          3.4065   -5.3184    4.8133 O.2       1 <0>        -0.9514
     18 O3          2.1118   -7.3764    5.2439 O.2       1 <0>        -0.9512
     19 N2          4.3411   -7.5043    4.2560 N.pl3     1 <0>        -1.2474
     20 Br1        -6.7373   -4.7668    0.0409 Br        1 <0>        -0.0175
     21 H1          1.0039    1.9031    0.0027 H         1 <0>         0.0721
     22 H2         -0.5459    1.8868   -0.8726 H         1 <0>         0.0621
     23 H3         -0.5289    1.8773    0.9072 H         1 <0>         0.0615
     24 H4          0.5123   -0.3556   -0.8948 H         1 <0>         0.0764
     25 H5          0.5293   -0.3651    0.8851 H         1 <0>         0.0739
     26 H6         -1.9435   -0.1821    0.9097 H         1 <0>         0.0742
     27 H7         -1.9605   -0.1726   -0.8702 H         1 <0>         0.0751
     28 H8         -3.7502   -0.7779    0.0238 H         1 <0>         0.1499
     29 H9         -5.9261   -1.9281    0.0385 H         1 <0>         0.1494
     30 H10        -3.9378   -5.7030    0.0202 H         1 <0>         0.1504
     31 H11        -1.6097   -5.7954   -0.3657 H         1 <0>         0.1417
     32 H12        -0.6764   -4.3119   -0.6762 H         1 <0>         0.1433
     33 H13        -0.6449   -3.9189    1.6757 H         1 <0>         0.4309
     34 H14         0.1881   -6.6458    0.9758 H         1 <0>         0.1392
     35 H15         1.1214   -5.1623    0.6653 H         1 <0>         0.1388
     36 H16         1.1917   -4.6970    3.0999 H         1 <0>         0.1060
     37 H17         0.2584   -6.1805    3.4104 H         1 <0>         0.1066
     38 H18         2.0605   -7.5314    2.3730 H         1 <0>         0.1479
     39 H19         2.9938   -6.0479    2.0625 H         1 <0>         0.1477
     40 H20         4.6032   -7.8507    3.3886 H         1 <0>         0.4150
     41 H21         4.8884   -7.6854    5.0361 H         1 <0>         0.4279
     42 H22        -1.5089   -5.2922    1.9631 H         1 <0>         0.4290
@<TRIPOS>BOND
     1    1    2 1
     2    1   21 1
     3    1   22 1
     4    1   23 1
     5    2    3 1
     6    2   24 1
     7    2   25 1
     8    3    4 1
     9    3   26 1
    10    3   27 1
    11    4    5 1
    12    5   10 ar
    13    5    6 ar
    14    6    7 ar
    15    6   28 1
    16    7    8 ar
    17    7   29 1
    18    8    9 ar
    19    8   20 1
    20    9   10 ar
    21    9   30 1
    22   10   11 1
    23   11   12 1
    24   11   31 1
    25   11   32 1
    26   12   13 1
    27   12   33 1
    28   12   42 1
    29   13   14 1
    30   13   34 1
    31   13   35 1
    32   14   15 1
    33   14   36 1
    34   14   37 1
    35   15   16 1
    36   15   38 1
    37   15   39 1
    38   16   17 2
    39   16   18 2
    40   16   19 1
    41   19   40 1
    42   19   41 1
@<TRIPOS>MOLECULE
ZINC66310584
   46    47     0     0     0
SMALL
USER_CHARGES

@<TRIPOS>ATOM
      1 C1         -0.0184    1.5028    0.0103 C.3       1 <0>        -0.0887
      2 C2          0.0021   -0.0041    0.0020 C.2       1 <0>        -0.0741
      3 C3         -1.0392   -0.8719    0.0017 C.2       1 <0>        -0.1854
      4 C4         -0.7802   -2.2296   -0.0075 C.2       1 <0>        -0.0665
      5 C5          0.5074   -2.6532   -0.0160 C.2       1 <0>        -0.2684
      6 S1          1.4039   -1.1093   -0.0179 S.3       1 <0>         0.0462
      7 C6          1.0430   -4.0617   -0.0269 C.3       1 <0>         0.1373
      8 H1          0.2712   -4.7467    0.3242 H         1 <0>         0.1571
      9 C7          1.4518   -4.4409   -1.4516 C.3       1 <0>        -0.1821
     10 N1          2.2129   -4.1475    0.8574 N.4       1 <0>        -0.5111
     11 C8          2.6625   -5.5436    0.9407 C.3       1 <0>         0.0435
     12 C9          3.8626   -5.6316    1.8479 C.ar      1 <0>        -0.1160
     13 C10         5.1346   -5.4894    1.3247 C.ar      1 <0>        -0.1755
     14 C11         6.2395   -5.5704    2.1568 C.ar      1 <0>         0.1369
     15 C12         6.0660   -5.7945    3.5191 C.ar      1 <0>         0.1054
     16 C13         4.7882   -5.9358    4.0378 C.ar      1 <0>        -0.0204
     17 C14         3.6890   -5.8486    3.2018 C.ar      1 <0>        -0.1103
     18 Cl1         4.5668   -6.2161    5.7367 Cl        1 <0>        -0.0148
     19 O1          7.1476   -5.8753    4.3399 O.3       1 <0>        -0.2856
     20 C15         7.6060   -4.6576    4.9307 C.3       1 <0>         0.0466
     21 C16         8.8030   -4.9411    5.8013 C.2       1 <0>         0.5193
     22 O2          9.2222   -6.0743    5.9055 O.2       1 <0>        -0.5102
     23 N2          9.4076   -3.9352    6.4640 N.am      1 <0>        -0.8494
     24 O3          7.4910   -5.4317    1.6431 O.3       1 <0>        -0.2906
     25 C17         7.5932   -5.2042    0.2361 C.3       1 <0>         0.0188
     26 H2          1.0042    1.8801    0.0026 H         1 <0>         0.0809
     27 H3         -0.5455    1.8639   -0.8728 H         1 <0>         0.0960
     28 H4         -0.5286    1.8543    0.9071 H         1 <0>         0.0956
     29 H5         -2.0560   -0.5079    0.0090 H         1 <0>         0.1499
     30 H6         -1.5916   -2.9424   -0.0076 H         1 <0>         0.1445
     31 H7          0.5838   -4.3773   -2.1078 H         1 <0>         0.1111
     32 H8          2.2236   -3.7560   -1.8027 H         1 <0>         0.0835
     33 H9          1.8393   -5.4597   -1.4595 H         1 <0>         0.0895
     34 H10         2.9573   -3.5760    0.4868 H         1 <0>         0.4244
     35 H11         1.8583   -6.1610    1.3410 H         1 <0>         0.1489
     36 H12         2.9321   -5.8983   -0.0541 H         1 <0>         0.1468
     37 H13         5.2670   -5.3155    0.2670 H         1 <0>         0.1495
     38 H14         2.6937   -5.9547    3.6073 H         1 <0>         0.1514
     39 H15         7.8861   -3.9556    4.1453 H         1 <0>         0.0910
     40 H16         6.8099   -4.2257    5.5371 H         1 <0>         0.0886
     41 H17         9.0723   -3.0289    6.3806 H         1 <0>         0.4029
     42 H18        10.1781   -4.1177    7.0244 H         1 <0>         0.4131
     43 H19         8.6431   -5.1120   -0.0418 H         1 <0>         0.1147
     44 H20         7.1475   -6.0417   -0.3007 H         1 <0>         0.0640
     45 H21         7.0669   -4.2854   -0.0226 H         1 <0>         0.0596
     46 H22         1.9633   -3.8191    1.7783 H         1 <0>         0.4320
@<TRIPOS>BOND
     1    1    2 1
     2    1   26 1
     3    1   27 1
     4    1   28 1
     5    2    6 1
     6    2    3 2
     7    3    4 1
     8    3   29 1
     9    4    5 2
    10    4   30 1
    11    5    6 1
    12    5    7 1
    13    7    8 1
    14    7    9 1
    15    7   10 1
    16    9   31 1
    17    9   32 1
    18    9   33 1
    19   10   11 1
    20   10   34 1
    21   10   46 1
    22   11   12 1
    23   11   35 1
    24   11   36 1
    25   12   17 ar
    26   12   13 ar
    27   13   14 ar
    28   13   37 1
    29   14   15 ar
    30   14   24 1
    31   15   16 ar
    32   15   19 1
    33   16   17 ar
    34   16   18 1
    35   17   38 1
    36   19   20 1
    37   20   21 1
    38   20   39 1
    39   20   40 1
    40   21   22 2
    41   21   23 am
    42   23   41 1
    43   23   42 1
    44   24   25 1
    45   25   43 1
    46   25   44 1
    47   25   45 1
@<TRIPOS>MOLECULE
ZINC07811988
   52    54     0     0     0
SMALL
USER_CHARGES
2-[2-(3,5-dimethyl-1-piperidyl)acetyl]amino-4,5,6,7-tetrahydrobenzothiophene-3-carboxamide
@<TRIPOS>ATOM
      1 C1          0.6171    7.6767    0.0428 C.3       1 <0>        -0.1676
      2 C2         -0.3793    7.6104    1.2020 C.3       1 <0>        -0.1095
      3 H1          0.1302    7.8520    2.1348 H         1 <0>         0.1197
      4 C3         -1.5101    8.6146    0.9622 C.3       1 <0>        -0.1300
      5 C4         -2.2581    8.2327   -0.3181 C.3       1 <0>        -0.1134
      6 H2         -1.5784    8.2899   -1.1683 H         1 <0>         0.0968
      7 C5         -2.7909    6.8042   -0.1851 C.3       1 <0>        -0.0009
      8 C6         -0.9665    6.2000    1.2910 C.3       1 <0>        -0.0094
      9 C7         -2.1290    4.4862    0.0371 C.3       1 <0>        -0.0200
     10 C8         -0.9356    3.5660    0.0261 C.2       1 <0>         0.4940
     11 O1          0.1859    4.0274    0.0230 O.2       1 <0>        -0.4925
     12 N1         -1.1148    2.2302    0.0198 N.am      1 <0>        -0.5932
     13 C9         -0.0167    1.3835    0.0096 C.2       1 <0>         0.0283
     14 C10         0.0021   -0.0041    0.0020 C.2       1 <0>        -0.1871
     15 C11         1.2994   -0.6581   -0.0139 C.2       1 <0>        -0.0725
     16 C12         2.3632    0.1744   -0.0193 C.2       1 <0>        -0.1801
     17 S1          1.6648    1.8011   -0.0042 S.3       1 <0>         0.2337
     18 C13         3.8106   -0.2097   -0.0348 C.3       1 <0>        -0.0423
     19 C14         3.9204   -1.6964    0.3337 C.3       1 <0>        -0.1159
     20 C15         2.9062   -2.4871   -0.4978 C.3       1 <0>        -0.1221
     21 C16         1.4863   -2.1702   -0.0252 C.3       1 <0>        -0.0637
     22 C17        -1.2412   -0.7814    0.0102 C.2       1 <0>         0.5762
     23 O2         -1.7674   -1.0987   -1.0403 O.2       1 <0>        -0.5255
     24 N2         -1.8012   -1.1444    1.1811 N.am      1 <0>        -0.8455
     25 C18        -3.4273    9.1959   -0.5332 C.3       1 <0>        -0.1511
     26 H3          1.0324    8.6824   -0.0223 H         1 <0>         0.0833
     27 H4          1.4218    6.9617    0.2140 H         1 <0>         0.0777
     28 H5          0.1070    7.4332   -0.8892 H         1 <0>         0.0484
     29 H6         -1.0918    9.6154    0.8549 H         1 <0>         0.0959
     30 H7         -2.1996    8.5965    1.8061 H         1 <0>         0.0833
     31 H8         -3.3118    6.5241   -1.1006 H         1 <0>         0.1309
     32 H9         -3.4817    6.7511    0.6564 H         1 <0>         0.1349
     33 H10        -1.6658    6.1497    2.1255 H         1 <0>         0.1297
     34 H11        -0.1623    5.4810    1.4474 H         1 <0>         0.1416
     35 H12        -2.7349    4.3060   -0.8508 H         1 <0>         0.1657
     36 H13        -2.7260    4.2964    0.9291 H         1 <0>         0.1676
     37 H14        -2.0118    1.8611    0.0223 H         1 <0>         0.4265
     38 H15         4.3575    0.3902    0.6926 H         1 <0>         0.0858
     39 H16         4.2238   -0.0467   -1.0302 H         1 <0>         0.0888
     40 H17         3.7044   -1.8270    1.3941 H         1 <0>         0.0701
     41 H18         4.9273   -2.0547    0.1192 H         1 <0>         0.0798
     42 H19         3.0966   -3.5541   -0.3824 H         1 <0>         0.0761
     43 H20         3.0082   -2.2127   -1.5478 H         1 <0>         0.0691
     44 H21         1.3394   -2.5641    0.9804 H         1 <0>         0.0809
     45 H22         0.7634   -2.6227   -0.7041 H         1 <0>         0.0788
     46 H23        -1.3818   -0.8915    2.0184 H         1 <0>         0.4044
     47 H24        -2.6236   -1.6587    1.1866 H         1 <0>         0.4079
     48 H25        -4.1059    9.1393    0.3179 H         1 <0>         0.0679
     49 H26        -3.0473   10.2131   -0.6279 H         1 <0>         0.0788
     50 H27        -3.9615    8.9215   -1.4428 H         1 <0>         0.0687
     51 N3         -1.6516    5.8844    0.0196 N.4       1 <0>        -0.3829
     52 H28        -0.9870    6.0000   -0.7544 H         1 <0>         0.4336
@<TRIPOS>BOND
     1    1    2 1
     2    1   26 1
     3    1   27 1
     4    1   28 1
     5    2    3 1
     6    2    8 1
     7    2    4 1
     8    4    5 1
     9    4   29 1
    10    4   30 1
    11    5    6 1
    12    5    7 1
    13    5   25 1
    14    7   31 1
    15    7   32 1
    16    7   51 1
    17    8   33 1
    18    8   34 1
    19    8   51 1
    20    9   10 1
    21    9   35 1
    22    9   36 1
    23    9   51 1
    24   10   11 2
    25   10   12 am
    26   12   13 1
    27   12   37 1
    28   13   17 1
    29   13   14 2
    30   14   15 1
    31   14   22 1
    32   15   21 1
    33   15   16 2
    34   16   17 1
    35   16   18 1
    36   18   19 1
    37   18   38 1
    38   18   39 1
    39   19   20 1
    40   19   40 1
    41   19   41 1
    42   20   21 1
    43   20   42 1
    44   20   43 1
    45   21   44 1
    46   21   45 1
    47   22   23 2
    48   22   24 am
    49   24   46 1
    50   24   47 1
    51   25   48 1
    52   25   49 1
    53   25   50 1
    54   51   52 1
@<TRIPOS>MOLECULE
ZINC35666533
   60    61     0     0     0
SMALL
USER_CHARGES

@<TRIPOS>ATOM
      1 C1          0.6319   -0.4695    1.2842 C.3       1 <0>        -0.1763
      2 C2         -0.0883    0.0101    0.0224 C.3       1 <0>        -0.1080
      3 C3         -0.1447    1.5390    0.0173 C.3       1 <0>        -0.1678
      4 C4          0.6705   -0.4764   -1.2139 C.3       1 <0>         0.0181
      5 H1          0.2163   -0.0520   -2.1093 H         1 <0>         0.1460
      6 C5          0.6056   -2.0034   -1.2840 C.3       1 <0>         0.1985
      7 H2          1.0062   -2.4261   -0.3626 H         1 <0>         0.1330
      8 C6          1.4236   -2.4873   -2.4553 C.ar      1 <0>        -0.1246
      9 C7          2.8061   -2.3952   -2.3594 C.ar      1 <0>        -0.2203
     10 C8          3.6120   -2.8120   -3.4025 C.ar      1 <0>         0.1248
     11 C9          3.0294   -3.3264   -4.5574 C.ar      1 <0>         0.1272
     12 C10         1.6533   -3.4196   -4.6463 C.ar      1 <0>        -0.1644
     13 C11         0.8461   -3.0052   -3.5930 C.ar      1 <0>        -0.0385
     14 C12        -0.6432   -3.1636   -3.7535 C.3       1 <0>        -0.1038
     15 C13        -1.3948   -2.2583   -2.7790 C.3       1 <0>         0.1068
     16 N1         -0.7894   -2.4256   -1.4484 N.am      1 <0>        -0.6214
     17 C14        -1.4900   -2.9459   -0.4213 C.2       1 <0>         0.7157
     18 O1         -0.9393   -3.1672    0.6399 O.2       1 <0>        -0.5677
     19 N2         -2.8009   -3.2209   -0.5705 N.am      1 <0>        -0.7299
     20 C15        -3.5872   -3.6843    0.5754 C.3       1 <0>         0.1851
     21 C16        -3.5551   -2.6241    1.6781 C.3       1 <0>        -0.1631
     22 C17        -5.0341   -3.9220    0.1385 C.3       1 <0>        -0.1593
     23 C18        -2.9937   -4.9906    1.1065 C.3       1 <0>        -0.1674
     24 O2          3.8103   -3.7347   -5.5933 O.3       1 <0>        -0.2974
     25 C19         3.1415   -4.2514   -6.7455 C.3       1 <0>         0.0208
     26 O3          4.9650   -2.7197   -3.3012 O.3       1 <0>        -0.2924
     27 C20         5.4894   -2.1811   -2.0859 C.3       1 <0>         0.0202
     28 N3          2.0733   -0.0494   -1.1270 N.4       1 <0>        -0.6393
     29 H3          0.6721   -1.5587    1.2879 H         1 <0>         0.0895
     30 H4          1.6454   -0.0684    1.2988 H         1 <0>         0.0470
     31 H5          0.0914   -0.1229    2.1650 H         1 <0>         0.0860
     32 H6         -1.1017   -0.3910    0.0079 H         1 <0>         0.1159
     33 H7          0.8630    1.9402    0.1257 H         1 <0>         0.0550
     34 H8         -0.5737    1.8836   -0.9237 H         1 <0>         0.0705
     35 H9         -0.7637    1.8826    0.8461 H         1 <0>         0.0845
     36 H10         3.2552   -1.9944   -1.4627 H         1 <0>         0.1264
     37 H11         1.2009   -3.8177   -5.5425 H         1 <0>         0.1471
     38 H12        -0.9235   -2.9028   -4.7740 H         1 <0>         0.0983
     39 H13        -0.9160   -4.2014   -3.5618 H         1 <0>         0.0925
     40 H14        -1.3055   -1.2196   -3.0969 H         1 <0>         0.0814
     41 H15        -2.4459   -2.5452   -2.7450 H         1 <0>         0.0960
     42 H16        -3.2238   -3.1120   -1.4367 H         1 <0>         0.3962
     43 H17        -3.9780   -1.6934    1.2998 H         1 <0>         0.0533
     44 H18        -4.1402   -2.9689    2.5307 H         1 <0>         0.0688
     45 H19        -2.5243   -2.4547    1.9894 H         1 <0>         0.0749
     46 H20        -5.0570   -4.6773   -0.6471 H         1 <0>         0.0640
     47 H21        -5.6192   -4.2668    0.9911 H         1 <0>         0.0805
     48 H22        -5.4570   -2.9913   -0.2398 H         1 <0>         0.0632
     49 H23        -1.9629   -4.8212    1.4177 H         1 <0>         0.0820
     50 H24        -3.5787   -5.3354    1.9591 H         1 <0>         0.0665
     51 H25        -3.0166   -5.7459    0.3209 H         1 <0>         0.0537
     52 H26         2.4845   -3.4858   -7.1581 H         1 <0>         0.0610
     53 H27         3.8788   -4.5397   -7.4948 H         1 <0>         0.1112
     54 H28         2.5510   -5.1229   -6.4626 H         1 <0>         0.0614
     55 H29         5.1154   -1.1668   -1.9468 H         1 <0>         0.0459
     56 H30         5.1746   -2.8025   -1.2475 H         1 <0>         0.0622
     57 H31         6.5780   -2.1633   -2.1363 H         1 <0>         0.1144
     58 H32         2.4937   -0.4423   -0.2982 H         1 <0>         0.4297
     59 H33         2.5737   -0.3702   -1.9423 H         1 <0>         0.4318
     60 H34         2.1161    0.9576   -1.0808 H         1 <0>         0.4349
@<TRIPOS>BOND
     1    1    2 1
     2    1   29 1
     3    1   30 1
     4    1   31 1
     5    2    3 1
     6    2    4 1
     7    2   32 1
     8    3   33 1
     9    3   34 1
    10    3   35 1
    11    4    5 1
    12    4    6 1
    13    4   28 1
    14    6    7 1
    15    6   16 1
    16    6    8 1
    17    8   13 ar
    18    8    9 ar
    19    9   10 ar
    20    9   36 1
    21   10   11 ar
    22   10   26 1
    23   11   12 ar
    24   11   24 1
    25   12   13 ar
    26   12   37 1
    27   13   14 1
    28   14   15 1
    29   14   38 1
    30   14   39 1
    31   15   16 1
    32   15   40 1
    33   15   41 1
    34   16   17 am
    35   17   18 2
    36   17   19 am
    37   19   20 1
    38   19   42 1
    39   20   21 1
    40   20   22 1
    41   20   23 1
    42   21   43 1
    43   21   44 1
    44   21   45 1
    45   22   46 1
    46   22   47 1
    47   22   48 1
    48   23   49 1
    49   23   50 1
    50   23   51 1
    51   24   25 1
    52   25   52 1
    53   25   53 1
    54   25   54 1
    55   26   27 1
    56   27   55 1
    57   27   56 1
    58   27   57 1
    59   28   58 1
    60   28   59 1
    61   28   60 1
@<TRIPOS>MOLECULE
ZINC19775641
   54    56     0     0     0
SMALL
USER_CHARGES

@<TRIPOS>ATOM
      1 C1          0.0168    1.5449    0.0134 C.3       1 <0>        -0.1398
      2 C2          0.0361    0.0092    0.0091 C.3       1 <0>        -0.0668
      3 C3         -1.3922   -0.6007    0.0228 C.3       1 <0>        -0.1329
      4 C4         -1.0727   -2.0051   -0.5625 C.3       1 <0>         0.0381
      5 H1         -1.9957   -2.5014   -0.9053 H         1 <0>         0.1542
      6 C5         -0.3606   -2.8028    0.5117 C.3       1 <0>        -0.1408
      7 C6          0.6965   -2.0850    1.3210 C.3       1 <0>        -0.0633
      8 C7          0.7697   -0.5751    1.2167 C.3       1 <0>        -0.1142
      9 C8          2.0798   -2.6777    0.9892 C.3       1 <0>        -0.1558
     10 C9          0.4362   -2.4236    2.8123 C.3       1 <0>        -0.1515
     11 N1         -0.1915   -1.6834   -1.7032 N.4       1 <0>        -0.3729
     12 C10         0.6730   -0.5674   -1.2759 C.3       1 <0>        -0.0031
     13 C11         0.5920   -2.8205   -2.1702 C.3       1 <0>        -0.0334
     14 C12         1.3615   -2.4271   -3.4048 C.2       1 <0>         0.5008
     15 O1          1.2621   -1.3028   -3.8488 O.2       1 <0>        -0.5126
     16 N2          2.1603   -3.3246   -4.0154 N.am      1 <0>        -0.6332
     17 C13         2.8026   -2.9891   -5.2146 C.ar      1 <0>         0.1395
     18 C14         3.2411   -1.6909   -5.4279 C.ar      1 <0>        -0.1606
     19 C15         3.8769   -1.3617   -6.6168 C.ar      1 <0>         0.2035
     20 C16         4.0730   -2.3315   -7.5915 C.ar      1 <0>        -0.1570
     21 C17         3.6357   -3.6254   -7.3798 C.ar      1 <0>        -0.1369
     22 C18         3.0066   -3.9602   -6.1920 C.ar      1 <0>         0.0579
     23 O2          2.5822   -5.2360   -5.9827 O.3       1 <0>        -0.3263
     24 C19         2.8246   -6.1800   -7.0278 C.3       1 <0>         0.0284
     25 N3          4.3201   -0.0523   -6.8338 N.pl3     1 <0>        -0.8743
     26 H2          1.0397    1.9212   -0.0032 H         1 <0>         0.0721
     27 H3         -0.5168    1.9040   -0.8666 H         1 <0>         0.0704
     28 H4         -0.4861    1.8994    0.9131 H         1 <0>         0.0781
     29 H5         -1.7855   -0.6747    1.0345 H         1 <0>         0.1213
     30 H6         -2.0674   -0.0476   -0.6280 H         1 <0>         0.1000
     31 H7         -1.1372   -3.1580    1.2315 H         1 <0>         0.1100
     32 H8          0.0559   -3.7358    0.1088 H         1 <0>         0.0905
     33 H9          1.8267   -0.2692    1.1713 H         1 <0>         0.0794
     34 H10         0.3554   -0.1298    2.1341 H         1 <0>         0.0861
     35 H11         2.2843   -2.5501   -0.0739 H         1 <0>         0.0432
     36 H12         2.8446   -2.1629    1.5706 H         1 <0>         0.0721
     37 H13         2.0890   -3.7393    1.2360 H         1 <0>         0.0684
     38 H14         0.5065   -3.5015    2.9579 H         1 <0>         0.0624
     39 H15         1.1795   -1.9238    3.4335 H         1 <0>         0.0652
     40 H16        -0.5604   -2.0833    3.0936 H         1 <0>         0.0616
     41 H17         0.6912    0.2001   -2.0539 H         1 <0>         0.1389
     42 H18         1.6831   -0.9157   -1.0841 H         1 <0>         0.1258
     43 H19         1.2887   -3.1267   -1.3899 H         1 <0>         0.1585
     44 H20        -0.0756   -3.6490   -2.4069 H         1 <0>         0.1619
     45 H21         2.2906   -4.2028   -3.6247 H         1 <0>         0.4220
     46 H22         3.0878   -0.9369   -4.6700 H         1 <0>         0.1432
     47 H23         4.5675   -2.0740   -8.5165 H         1 <0>         0.1311
     48 H24         3.7888   -4.3775   -8.1396 H         1 <0>         0.1384
     49 H25         2.4376   -7.1555   -6.7332 H         1 <0>         0.1028
     50 H26         2.3241   -5.8504   -7.9383 H         1 <0>         0.0575
     51 H27         3.8968   -6.2540   -7.2090 H         1 <0>         0.0583
     52 H28         4.1830    0.6252   -6.1533 H         1 <0>         0.3995
     53 H29         4.7645    0.1779   -7.6647 H         1 <0>         0.4030
     54 H30        -0.7749   -1.3511   -2.4739 H         1 <0>         0.4314
@<TRIPOS>BOND
     1    1    2 1
     2    1   26 1
     3    1   27 1
     4    1   28 1
     5    2    8 1
     6    2   12 1
     7    2    3 1
     8    3    4 1
     9    3   29 1
    10    3   30 1
    11    4    5 1
    12    4    6 1
    13    4   11 1
    14    6    7 1
    15    6   31 1
    16    6   32 1
    17    7    8 1
    18    7    9 1
    19    7   10 1
    20    8   33 1
    21    8   34 1
    22    9   35 1
    23    9   36 1
    24    9   37 1
    25   10   38 1
    26   10   39 1
    27   10   40 1
    28   11   12 1
    29   11   13 1
    30   11   54 1
    31   12   41 1
    32   12   42 1
    33   13   14 1
    34   13   43 1
    35   13   44 1
    36   14   15 2
    37   14   16 am
    38   16   17 1
    39   16   45 1
    40   17   22 ar
    41   17   18 ar
    42   18   19 ar
    43   18   46 1
    44   19   20 ar
    45   19   25 1
    46   20   21 ar
    47   20   47 1
    48   21   22 ar
    49   21   48 1
    50   22   23 1
    51   23   24 1
    52   24   49 1
    53   24   50 1
    54   24   51 1
    55   25   52 1
    56   25   53 1
@<TRIPOS>MOLECULE
ZINC47763874
   56    57     0     0     0
SMALL
USER_CHARGES

@<TRIPOS>ATOM
      1 C1         -0.3733    0.8972    2.3750 C.3       1 <0>        -0.1528
      2 C2         -0.2556   -0.4781    1.7151 C.3       1 <0>         0.0561
      3 O1         -1.5088   -0.8333    1.1275 O.3       1 <0>        -0.3222
      4 C3         -1.5756   -2.0355    0.4954 C.ar      1 <0>         0.1081
      5 C4         -0.4614   -2.8574    0.4470 C.ar      1 <0>        -0.1885
      6 C5         -0.5308   -4.0792   -0.1963 C.ar      1 <0>        -0.0567
      7 C6         -1.7105   -4.4846   -0.7928 C.ar      1 <0>        -0.1365
      8 C7         -2.8265   -3.6706   -0.7485 C.ar      1 <0>        -0.0891
      9 C8         -2.7660   -2.4460   -0.0999 C.ar      1 <0>         0.1208
     10 N1         -3.8981   -1.6211   -0.0490 N.am      1 <0>        -0.6675
     11 C9         -5.1291   -2.1586   -0.1594 C.2       1 <0>         0.7072
     12 O2         -5.2641   -3.3665   -0.1951 O.2       1 <0>        -0.5690
     13 N2         -6.2105   -1.3573   -0.2302 N.am      1 <0>        -0.7421
     14 C10        -7.5517   -1.9430   -0.3505 C.3       1 <0>         0.1595
     15 C11        -7.8618   -2.1889   -1.8283 C.3       1 <0>        -0.1450
     16 C12        -9.2607   -2.7875   -1.9713 C.3       1 <0>         0.0600
     17 N3        -10.2745   -1.9745   -1.3162 N.4       1 <0>        -0.4911
     18 C13        -9.9966   -1.5049    0.0317 C.3       1 <0>         0.0633
     19 C14        -8.5828   -0.9576    0.1984 C.3       1 <0>        -0.1419
     20 C15       -10.2620   -2.5920    1.0763 C.3       1 <0>        -0.1802
     21 C16       -10.9756   -0.3442    0.3300 C.3       1 <0>        -0.1801
     22 C17        -9.2709   -4.2323   -1.4729 C.3       1 <0>        -0.1744
     23 C18        -9.5928   -2.8210   -3.4810 C.3       1 <0>        -0.1795
     24 C19         0.6828   -4.9712   -0.2480 C.3       1 <0>        -0.1188
     25 H1          0.5826    1.1682    2.8233 H         1 <0>         0.0823
     26 H2         -0.6454    1.6386    1.6238 H         1 <0>         0.0660
     27 H3         -1.1409    0.8647    3.1482 H         1 <0>         0.0655
     28 H4          0.5121   -0.4456    0.9420 H         1 <0>         0.0648
     29 H5          0.0166   -1.2195    2.4664 H         1 <0>         0.0645
     30 H6          0.4617   -2.5436    0.9116 H         1 <0>         0.1338
     31 H7         -1.7598   -5.4395   -1.2949 H         1 <0>         0.1288
     32 H8         -3.7466   -3.9897   -1.2153 H         1 <0>         0.1510
     33 H9         -3.7956   -0.6634    0.0657 H         1 <0>         0.4119
     34 H10        -6.1028   -0.3937   -0.2017 H         1 <0>         0.4027
     35 H11        -7.5817   -2.8750    0.2066 H         1 <0>         0.1093
     36 H12        -7.8121   -1.2446   -2.3726 H         1 <0>         0.0909
     37 H13        -7.1265   -2.8806   -2.2431 H         1 <0>         0.1154
     38 H14       -10.4648   -1.1614   -1.9074 H         1 <0>         0.4245
     39 H15        -8.3842   -0.7794    1.2584 H         1 <0>         0.1164
     40 H16        -8.4955   -0.0082   -0.3366 H         1 <0>         0.0954
     41 H17        -9.6857   -3.4832    0.8278 H         1 <0>         0.0856
     42 H18        -9.9653   -2.2302    2.0607 H         1 <0>         0.1051
     43 H19       -11.3242   -2.8368    1.0842 H         1 <0>         0.0859
     44 H20       -12.0012   -0.7059    0.2563 H         1 <0>         0.0849
     45 H21       -10.7951    0.0339    1.3363 H         1 <0>         0.1071
     46 H22       -10.8201    0.4571   -0.3924 H         1 <0>         0.0818
     47 H23        -9.0537   -4.2498   -0.4050 H         1 <0>         0.0844
     48 H24       -10.2526   -4.6711   -1.6513 H         1 <0>         0.0828
     49 H25        -8.5138   -4.8063   -2.0072 H         1 <0>         0.1070
     50 H26        -8.8581   -3.4357   -4.0011 H         1 <0>         0.1069
     51 H27       -10.5872   -3.2434   -3.6250 H         1 <0>         0.0835
     52 H28        -9.5671   -1.8074   -3.8812 H         1 <0>         0.0809
     53 H29         0.6847   -5.6326    0.6184 H         1 <0>         0.0748
     54 H30         0.6568   -5.5674   -1.1602 H         1 <0>         0.0710
     55 H31         1.5845   -4.3589   -0.2397 H         1 <0>         0.0682
     56 H32       -11.1495   -2.5043   -1.2991 H         1 <0>         0.4269
@<TRIPOS>BOND
     1    1    2 1
     2    1   25 1
     3    1   26 1
     4    1   27 1
     5    2    3 1
     6    2   28 1
     7    2   29 1
     8    3    4 1
     9    4    9 ar
    10    4    5 ar
    11    5    6 ar
    12    5   30 1
    13    6    7 ar
    14    6   24 1
    15    7    8 ar
    16    7   31 1
    17    8    9 ar
    18    8   32 1
    19    9   10 1
    20   10   11 am
    21   10   33 1
    22   11   12 2
    23   11   13 am
    24   13   14 1
    25   13   34 1
    26   14   19 1
    27   14   15 1
    28   14   35 1
    29   15   16 1
    30   15   36 1
    31   15   37 1
    32   16   17 1
    33   16   22 1
    34   16   23 1
    35   17   18 1
    36   17   38 1
    37   17   56 1
    38   18   19 1
    39   18   20 1
    40   18   21 1
    41   19   39 1
    42   19   40 1
    43   20   41 1
    44   20   42 1
    45   20   43 1
    46   21   44 1
    47   21   45 1
    48   21   46 1
    49   22   47 1
    50   22   48 1
    51   22   49 1
    52   23   50 1
    53   23   51 1
    54   23   52 1
    55   24   53 1
    56   24   54 1
    57   24   55 1
@<TRIPOS>MOLECULE
ZINC58627293
   36    38     0     0     0
SMALL
USER_CHARGES

@<TRIPOS>ATOM
      1 C1         -0.0167    1.3778    0.0096 C.ar      1 <0>        -0.1110
      2 C2          1.1711    2.0855    0.0021 C.ar      1 <0>        -0.0846
      3 C3          2.3776    1.4114   -0.0135 C.ar      1 <0>        -0.1211
      4 C4          2.3973    0.0292   -0.0216 C.ar      1 <0>        -0.0717
      5 C5          1.2095   -0.6792   -0.0136 C.ar      1 <0>        -0.0939
      6 C6          0.0021   -0.0041    0.0020 C.ar      1 <0>        -0.0731
      7 Br1         1.2358   -2.5700   -0.0253 Br        1 <0>        -0.0325
      8 C7          3.6719    2.1834   -0.0223 C.3       1 <0>         0.1630
      9 N1          4.1050    2.4261    1.3560 N.pl3     1 <0>        -0.7359
     10 C8          5.2889    3.1295    1.6038 C.ar      1 <0>         0.2628
     11 C9          6.0506    3.6024    0.5440 C.ar      1 <0>        -0.1818
     12 C10         7.2229    4.3002    0.7895 C.ar      1 <0>         0.1576
     13 C11         7.6333    4.5264    2.0984 C.ar      1 <0>         0.0259
     14 C12         6.8712    4.0509    3.1545 C.ar      1 <0>        -0.0481
     15 C13         5.6998    3.3597    2.9096 C.ar      1 <0>        -0.1470
     16 N2          4.9310    2.8875    3.9775 N.4       1 <0>        -0.5452
     17 O1          8.7784    5.2168    2.3596 O.3       1 <0>        -0.2992
     18 C14         9.7075    5.3544    1.2791 C.3       1 <0>         0.0190
     19 C15         8.9276    5.7712    0.0249 C.3       1 <0>         0.0155
     20 O2          7.9606    4.7547   -0.2602 O.3       1 <0>        -0.2917
     21 H1         -0.9592    1.9049    0.0260 H         1 <0>         0.1397
     22 H2          1.1560    3.1654    0.0080 H         1 <0>         0.1331
     23 H3          3.3402   -0.4974   -0.0346 H         1 <0>         0.1357
     24 H4         -0.9257   -0.5568    0.0083 H         1 <0>         0.1400
     25 H5          4.4346    1.6080   -0.5468 H         1 <0>         0.0869
     26 H6          3.5229    3.1366   -0.5295 H         1 <0>         0.0880
     27 H7          3.5710    2.0993    2.0969 H         1 <0>         0.3956
     28 H8          5.7295    3.4269   -0.4722 H         1 <0>         0.1591
     29 H9          7.1917    4.2246    4.1711 H         1 <0>         0.1592
     30 H10         5.2342    1.9575    4.2248 H         1 <0>         0.4329
     31 H11         5.0449    3.5005    4.7709 H         1 <0>         0.4417
     32 H12        10.4455    6.1183    1.5239 H         1 <0>         0.1366
     33 H13        10.2081    4.4026    1.1013 H         1 <0>         0.0873
     34 H14         8.4216    6.7197    0.2050 H         1 <0>         0.0913
     35 H15         9.6126    5.8735   -0.8169 H         1 <0>         0.1381
     36 H16         3.9591    2.8638    3.7076 H         1 <0>         0.4282
@<TRIPOS>BOND
     1    1    6 ar
     2    1    2 ar
     3    1   21 1
     4    2    3 ar
     5    2   22 1
     6    3    4 ar
     7    3    8 1
     8    4    5 ar
     9    4   23 1
    10    5    6 ar
    11    5    7 1
    12    6   24 1
    13    8    9 1
    14    8   25 1
    15    8   26 1
    16    9   10 1
    17    9   27 1
    18   10   15 ar
    19   10   11 ar
    20   11   12 ar
    21   11   28 1
    22   12   20 1
    23   12   13 ar
    24   13   14 ar
    25   13   17 1
    26   14   15 ar
    27   14   29 1
    28   15   16 1
    29   16   30 1
    30   16   31 1
    31   16   36 1
    32   17   18 1
    33   18   19 1
    34   18   32 1
    35   18   33 1
    36   19   20 1
    37   19   34 1
    38   19   35 1
@<TRIPOS>MOLECULE
ZINC08920309
   70    73     0     0     0
SMALL
USER_CHARGES
8-[4-[(3,5-dimethyl-1-piperidyl)sulfonyl]benzoyl]amino-4-ethyl-N-methyl-7-thia-4-azabicyclo[4.3.0]nona-8,10-diene-9-carboxamide
@<TRIPOS>ATOM
      1 C1          0.1281  -12.9599    1.2672 C.3       1 <0>        -0.1897
      2 C2          0.9508  -12.6375    0.0182 C.3       1 <0>        -0.0045
      3 C3          2.1740  -10.9768    1.2873 C.3       1 <0>         0.0003
      4 C4          2.9327   -9.6534    1.1521 C.3       1 <0>        -0.0896
      5 C5          1.9381   -8.5762    0.7352 C.2       1 <0>        -0.0388
      6 C6          0.7395   -8.9245    0.2142 C.2       1 <0>        -0.3174
      7 S1         -0.0722   -7.3884   -0.1165 S.3       1 <0>         0.3300
      8 C7          1.1601   -6.2979    0.4276 C.2       1 <0>         0.1020
      9 C8          2.1739   -7.1494    0.8481 C.2       1 <0>        -0.2331
     10 C9          3.4323   -6.6262    1.3884 C.2       1 <0>         0.5679
     11 O1          3.5429   -6.4207    2.5830 O.2       1 <0>        -0.5172
     12 N1          4.4667   -6.3727    0.5624 N.am      1 <0>        -0.7245
     13 C10         5.7242   -5.8499    1.1024 C.3       1 <0>         0.0800
     14 N2          1.1412   -4.9126    0.4357 N.am      1 <0>        -0.6152
     15 C11         0.0600   -4.2508   -0.0222 C.2       1 <0>         0.5615
     16 O2         -0.8984   -4.8694   -0.4423 O.2       1 <0>        -0.4821
     17 C12         0.0398   -2.7731   -0.0136 C.ar      1 <0>        -0.0924
     18 C13        -1.0784   -2.0844   -0.4872 C.ar      1 <0>        -0.0667
     19 C14        -1.0906   -0.7050   -0.4768 C.ar      1 <0>        -0.0199
     20 C15         0.0021   -0.0041    0.0020 C.ar      1 <0>        -0.6432
     21 C16         1.1157   -0.6803    0.4679 C.ar      1 <0>        -0.0221
     22 C17         1.1390   -2.0596    0.4676 C.ar      1 <0>        -0.1029
     23 S2         -0.0218    1.7577    0.0117 S.o2      1 <0>         2.6833
     24 O3          1.3342    2.1824    0.0010 O.2       1 <0>        -0.9450
     25 O4         -0.9529    2.1568   -0.9848 O.2       1 <0>        -0.9432
     26 N3         -0.6545    2.2308    1.4671 N.pl3     1 <0>        -0.9904
     27 C18        -2.1007    2.4376    1.6230 C.3       1 <0>         0.1213
     28 C19        -2.5890    1.5973    2.8127 C.3       1 <0>        -0.1075
     29 H1         -3.6413    1.8107    3.0005 H         1 <0>         0.0870
     30 C20        -1.7663    1.9533    4.0531 C.3       1 <0>        -0.1089
     31 C21        -0.2932    1.6225    3.8025 C.3       1 <0>        -0.1088
     32 H2         -0.1932    0.5628    3.5677 H         1 <0>         0.0760
     33 C22         0.2205    2.4577    2.6255 C.3       1 <0>         0.1219
     34 C23         0.5235    1.9481    5.0546 C.3       1 <0>        -0.1496
     35 C24        -2.4182    0.1101    2.4962 C.3       1 <0>        -0.1546
     36 C25         0.2429  -10.3170   -0.0190 C.3       1 <0>         0.1049
     37 H3          0.7405  -12.8050    2.1556 H         1 <0>         0.0811
     38 H4         -0.7427  -12.3057    1.3076 H         1 <0>         0.0802
     39 H5         -0.1994  -13.9988    1.2284 H         1 <0>         0.1072
     40 H6          0.3385  -12.7924   -0.8702 H         1 <0>         0.1323
     41 H7          1.8217  -13.2918   -0.0222 H         1 <0>         0.1324
     42 H8          1.5021  -10.9223    2.1439 H         1 <0>         0.1354
     43 H9          2.8877  -11.7866    1.4388 H         1 <0>         0.1380
     44 H10         3.3830   -9.3880    2.1086 H         1 <0>         0.1242
     45 H11         3.7093   -9.7504    0.3935 H         1 <0>         0.1062
     46 H12         4.3785   -6.5365   -0.3896 H         1 <0>         0.4042
     47 H13         6.4375   -5.7088    0.2903 H         1 <0>         0.0834
     48 H14         5.5393   -4.8946    1.5937 H         1 <0>         0.0657
     49 H15         6.1314   -6.5573    1.8248 H         1 <0>         0.0662
     50 H16         1.9060   -4.4190    0.7708 H         1 <0>         0.4265
     51 H17        -1.9322   -2.6304   -0.8605 H         1 <0>         0.1523
     52 H18        -1.9550   -0.1711   -0.8428 H         1 <0>         0.1543
     53 H19         1.9670   -0.1271    0.8362 H         1 <0>         0.1524
     54 H20         2.0074   -2.5863    0.8350 H         1 <0>         0.1333
     55 H21        -2.3009    3.4925    1.8106 H         1 <0>         0.0826
     56 H22        -2.6149    2.1218    0.7153 H         1 <0>         0.0923
     57 H23        -2.1276    1.3784    4.9058 H         1 <0>         0.0672
     58 H24        -1.8687    3.0179    4.2632 H         1 <0>         0.0690
     59 H25         1.2383    2.1551    2.3794 H         1 <0>         0.0903
     60 H26         0.2077    3.5146    2.8916 H         1 <0>         0.0820
     61 H27         0.4217    3.0076    5.2895 H         1 <0>         0.0605
     62 H28         0.1576    1.3536    5.8918 H         1 <0>         0.0598
     63 H29         1.5729    1.7150    4.8747 H         1 <0>         0.0580
     64 H30        -2.7627   -0.4835    3.3430 H         1 <0>         0.0586
     65 H31        -3.0043   -0.1430    1.6127 H         1 <0>         0.0544
     66 H32        -1.3660   -0.1026    2.3073 H         1 <0>         0.0563
     67 H33        -0.4955  -10.5759    0.7398 H         1 <0>         0.1450
     68 H34        -0.2071  -10.3859   -1.0094 H         1 <0>         0.1423
     69 N4          1.4085  -11.2317    0.0496 N.4       1 <0>        -0.3943
     70 H35         2.0160  -11.0604   -0.7602 H         1 <0>         0.4322
@<TRIPOS>BOND
     1    1    2 1
     2    1   37 1
     3    1   38 1
     4    1   39 1
     5    2   40 1
     6    2   41 1
     7    2   69 1
     8    3    4 1
     9    3   42 1
    10    3   43 1
    11    3   69 1
    12    4    5 1
    13    4   44 1
    14    4   45 1
    15    5    9 1
    16    5    6 2
    17    6    7 1
    18    6   36 1
    19    7    8 1
    20    8    9 2
    21    8   14 1
    22    9   10 1
    23   10   11 2
    24   10   12 am
    25   12   13 1
    26   12   46 1
    27   13   47 1
    28   13   48 1
    29   13   49 1
    30   14   15 am
    31   14   50 1
    32   15   16 2
    33   15   17 1
    34   17   22 ar
    35   17   18 ar
    36   18   19 ar
    37   18   51 1
    38   19   20 ar
    39   19   52 1
    40   20   21 ar
    41   20   23 1
    42   21   22 ar
    43   21   53 1
    44   22   54 1
    45   23   24 2
    46   23   25 2
    47   23   26 1
    48   26   33 1
    49   26   27 1
    50   27   28 1
    51   27   55 1
    52   27   56 1
    53   28   29 1
    54   28   30 1
    55   28   35 1
    56   30   31 1
    57   30   57 1
    58   30   58 1
    59   31   32 1
    60   31   33 1
    61   31   34 1
    62   33   59 1
    63   33   60 1
    64   34   61 1
    65   34   62 1
    66   34   63 1
    67   35   64 1
    68   35   65 1
    69   35   66 1
    70   36   67 1
    71   36   68 1
    72   36   69 1
    73   69   70 1
@<TRIPOS>MOLECULE
ZINC20687458
   71    74     0     0     0
SMALL
USER_CHARGES
N-[2-(benzyl-methyl-amino)ethyl]-2-[6-[(4-methyl-1-piperidyl)sulfonyl]-3-oxo-1,4-benzothiazin-4-yl]acetamide
@<TRIPOS>ATOM
      1 C1         -0.0321   -0.0667   -0.0302 C.3       1 <0>        -0.1500
      2 C2         -0.0556    1.4629   -0.0080 C.3       1 <0>        -0.0902
      3 C3         -0.7909    1.9796   -1.2467 C.3       1 <0>        -0.1297
      4 C4         -0.8427    3.5100   -1.2036 C.3       1 <0>         0.1213
      5 N1          0.5251    4.0255   -1.0551 N.pl3     1 <0>        -0.9927
      6 C5          1.3522    3.5255    0.0516 C.3       1 <0>         0.1150
      7 C6          1.3794    1.9949   -0.0056 C.3       1 <0>        -0.1333
      8 S1          1.1234    5.1482   -2.1152 S.o2      1 <0>         2.6907
      9 O1          0.0016    5.8210   -2.6702 O.2       1 <0>        -0.9565
     10 O2          2.1638    5.8359   -1.4341 O.2       1 <0>        -0.9414
     11 C7          1.8845    4.2642   -3.4357 C.ar      1 <0>        -0.6471
     12 C8          3.2246    3.9318   -3.3571 C.ar      1 <0>        -0.0210
     13 C9          3.8232    3.2316   -4.3885 C.ar      1 <0>        -0.0733
     14 C10         3.0810    2.8753   -5.5019 C.ar      1 <0>        -0.0784
     15 C11         1.7302    3.2141   -5.5919 C.ar      1 <0>         0.1431
     16 C12         1.1399    3.9130   -4.5446 C.ar      1 <0>        -0.0384
     17 N2          0.9657    2.8727   -6.7043 N.am      1 <0>        -0.5269
     18 C13         1.2328    1.9043   -7.5763 C.2       1 <0>         0.5316
     19 O3          0.4572    1.7279   -8.4921 O.2       1 <0>        -0.5052
     20 C14         2.4433    1.0155   -7.4890 C.3       1 <0>        -0.1356
     21 S2          3.8331    1.9829   -6.8263 S.3       1 <0>        -0.0495
     22 C15        -0.2506    3.6555   -6.9368 C.3       1 <0>         0.0705
     23 C16        -1.4284    2.9498   -6.3157 C.2       1 <0>         0.5104
     24 O4         -1.2677    1.8967   -5.7360 O.2       1 <0>        -0.5134
     25 N3         -2.6605    3.4890   -6.4045 N.am      1 <0>        -0.7418
     26 C17        -3.8055    2.8029   -5.8007 C.3       1 <0>         0.0993
     27 C18        -5.0758    3.6204   -6.0435 C.3       1 <0>        -0.0200
     28 N4         -6.2240    2.9325   -5.4381 N.4       1 <0>        -0.3963
     29 C19        -6.1050    2.8980   -3.9743 C.3       1 <0>        -0.0587
     30 C20        -7.4884    3.5572   -5.8489 C.3       1 <0>         0.0479
     31 C21        -8.6416    2.6891   -5.4158 C.ar      1 <0>        -0.1625
     32 C22        -9.1248    1.7089   -6.2623 C.ar      1 <0>        -0.0938
     33 C23       -10.1795    0.9093   -5.8632 C.ar      1 <0>        -0.1132
     34 C24       -10.7575    1.0967   -4.6215 C.ar      1 <0>        -0.0828
     35 C25       -10.2780    2.0807   -3.7773 C.ar      1 <0>        -0.1139
     36 C26        -9.2199    2.8767   -4.1744 C.ar      1 <0>        -0.0958
     37 H1         -1.0634   -0.4492   -0.0319 H         1 <0>         0.0542
     38 H2          0.4953   -0.4383    0.8607 H         1 <0>         0.0595
     39 H3          0.4887   -0.4123   -0.9354 H         1 <0>         0.0541
     40 H4         -0.5759    1.8089    0.8973 H         1 <0>         0.0748
     41 H5         -0.2572    1.6547   -2.1520 H         1 <0>         0.0678
     42 H6         -1.8144    1.5769   -1.2601 H         1 <0>         0.0715
     43 H7         -1.2845    3.8883   -2.1372 H         1 <0>         0.0825
     44 H8         -1.4574    3.8322   -0.3502 H         1 <0>         0.0780
     45 H9          2.3741    3.9206   -0.0468 H         1 <0>         0.0956
     46 H10         0.9222    3.8553    1.0088 H         1 <0>         0.0816
     47 H11         1.9142    1.6032    0.8722 H         1 <0>         0.0819
     48 H12         1.8925    1.6699   -0.9227 H         1 <0>         0.0687
     49 H13         3.8018    4.2147   -2.4892 H         1 <0>         0.1544
     50 H14         4.8687    2.9675   -4.3280 H         1 <0>         0.1536
     51 H15         0.0953    4.1819   -4.5984 H         1 <0>         0.1375
     52 H16         2.2280    0.1672   -6.8226 H         1 <0>         0.1341
     53 H17         2.6952    0.6394   -8.4916 H         1 <0>         0.1601
     54 H18        -0.1383    4.6510   -6.4826 H         1 <0>         0.1280
     55 H19        -0.4163    3.7628   -8.0189 H         1 <0>         0.1363
     56 H20        -2.8064    4.4441   -6.9303 H         1 <0>         0.4348
     57 H21        -3.9176    1.8074   -6.2550 H         1 <0>         0.0876
     58 H22        -3.6397    2.6956   -4.7186 H         1 <0>         0.0887
     59 H23        -4.9636    4.6159   -5.5892 H         1 <0>         0.1383
     60 H24        -5.2415    3.7277   -7.1256 H         1 <0>         0.1398
     61 H25        -6.9758    2.3786   -3.5478 H         1 <0>         0.1282
     62 H26        -6.0646    3.9262   -3.5854 H         1 <0>         0.1235
     63 H27        -5.1855    2.3634   -3.6937 H         1 <0>         0.1258
     64 H28        -7.5780    4.5475   -5.3784 H         1 <0>         0.1355
     65 H29        -7.5039    3.6684   -6.9432 H         1 <0>         0.1384
     66 H30        -8.6759    1.5652   -7.2341 H         1 <0>         0.1316
     67 H31       -10.5543    0.1408   -6.5229 H         1 <0>         0.1363
     68 H32       -11.5839    0.4745   -4.3111 H         1 <0>         0.1361
     69 H33       -10.7298    2.2273   -2.8073 H         1 <0>         0.1362
     70 H34        -8.8453    3.6455   -3.5148 H         1 <0>         0.1310
     71 H35        -6.2263    1.8943   -5.8017 H         1 <0>         0.4454
@<TRIPOS>BOND
     1    1    2 1
     2    1   37 1
     3    1   38 1
     4    1   39 1
     5    2    7 1
     6    2    3 1
     7    2   40 1
     8    3    4 1
     9    3   41 1
    10    3   42 1
    11    4    5 1
    12    4   43 1
    13    4   44 1
    14    5    6 1
    15    5    8 1
    16    6    7 1
    17    6   45 1
    18    6   46 1
    19    7   47 1
    20    7   48 1
    21    8    9 2
    22    8   10 2
    23    8   11 1
    24   11   16 ar
    25   11   12 ar
    26   12   13 ar
    27   12   49 1
    28   13   14 ar
    29   13   50 1
    30   14   21 1
    31   14   15 ar
    32   15   16 ar
    33   15   17 1
    34   16   51 1
    35   17   18 am
    36   17   22 1
    37   18   19 2
    38   18   20 1
    39   20   21 1
    40   20   52 1
    41   20   53 1
    42   22   23 1
    43   22   54 1
    44   22   55 1
    45   23   24 2
    46   23   25 am
    47   25   26 1
    48   25   56 1
    49   26   27 1
    50   26   57 1
    51   26   58 1
    52   27   28 1
    53   27   59 1
    54   27   60 1
    55   28   29 1
    56   28   30 1
    57   28   71 1
    58   29   61 1
    59   29   62 1
    60   29   63 1
    61   30   31 1
    62   30   64 1
    63   30   65 1
    64   31   36 ar
    65   31   32 ar
    66   32   33 ar
    67   32   66 1
    68   33   34 ar
    69   33   67 1
    70   34   35 ar
    71   34   68 1
    72   35   36 ar
    73   35   69 1
    74   36   70 1
@<TRIPOS>MOLECULE
ZINC39636651
   74    78     0     0     0
SMALL
USER_CHARGES

@<TRIPOS>ATOM
      1 C1         -1.7638    0.9631    7.3400 C.3       1 <0>        -0.1183
      2 C2         -1.0733    0.6821    6.0303 C.ar      1 <0>        -0.0904
      3 C3         -0.6092    1.7285    5.2550 C.ar      1 <0>        -0.1027
      4 C4          0.0240    1.4707    4.0538 C.ar      1 <0>        -0.1144
      5 C5          0.1939    0.1664    3.6278 C.ar      1 <0>        -0.0706
      6 C6         -0.2692   -0.8797    4.4034 C.ar      1 <0>        -0.1168
      7 C7         -0.8988   -0.6220    5.6069 C.ar      1 <0>        -0.1002
      8 C8         -0.0844   -2.3014    3.9388 C.3       1 <0>         0.1609
      9 N1          1.2831   -2.7372    4.2323 N.am      1 <0>        -0.7204
     10 C9          1.6787   -3.9829    3.9031 C.2       1 <0>         0.5185
     11 O1          0.9025   -4.7429    3.3637 O.2       1 <0>        -0.5198
     12 C10         3.0854   -4.4312    4.2050 C.3       1 <0>        -0.1138
     13 H1          3.7659   -3.5800    4.1889 H         1 <0>         0.1132
     14 C11         3.5389   -5.5019    3.1874 C.3       1 <0>         0.1067
     15 N2          4.3481   -6.4551    3.9827 N.am      1 <0>        -0.6240
     16 C12         3.6233   -6.5690    5.2710 C.3       1 <0>         0.1113
     17 C13         3.1412   -5.1357    5.5710 C.3       1 <0>        -0.0722
     18 C14         1.7544   -5.1681    6.2060 C.3       1 <0>        -0.1472
     19 C15         1.8460   -5.8208    7.5882 C.3       1 <0>        -0.0081
     20 N3          2.7744   -5.0579    8.4312 N.4       1 <0>        -0.5046
     21 C16         4.1262   -5.1100    7.8613 C.3       1 <0>        -0.0117
     22 C17         4.1311   -4.4272    6.4907 C.3       1 <0>        -0.1343
     23 C18         5.4864   -7.0777    3.6175 C.2       1 <0>         0.5431
     24 O2          6.0361   -7.8369    4.3871 O.2       1 <0>        -0.4962
     25 C19         6.0759   -6.8304    2.2528 C.3       1 <0>         0.0419
     26 O3          7.2718   -7.5985    2.1043 O.3       1 <0>        -0.2765
     27 C20         7.9327   -7.4892    0.9210 C.ar      1 <0>         0.1153
     28 C21         7.4447   -6.6580   -0.0712 C.ar      1 <0>        -0.1637
     29 C22         8.1098   -6.5380   -1.2824 C.ar      1 <0>        -0.0974
     30 C23         9.2673   -7.2459   -1.5149 C.ar      1 <0>        -0.0892
     31 C24         9.7747   -8.0907   -0.5221 C.ar      1 <0>        -0.1107
     32 C25         9.1060   -8.2100    0.7075 C.ar      1 <0>         0.1226
     33 O4          9.6006   -9.0227    1.6663 O.3       1 <0>        -0.2599
     34 C26        10.7289   -9.7237    1.4770 C.2       1 <0>         0.5066
     35 O5         11.1368  -10.4442    2.3699 O.2       1 <0>        -0.4574
     36 C27        11.4550   -9.6473    0.2685 C.2       1 <0>        -0.2421
     37 C28        11.0053   -8.8578   -0.7395 C.2       1 <0>         0.0231
     38 C29        11.7599   -8.7582   -2.0402 C.3       1 <0>        -0.1288
     39 C30         0.8835   -0.1146    2.3177 C.3       1 <0>        -0.1215
     40 H2         -1.0250    0.9945    8.1408 H         1 <0>         0.0703
     41 H3         -2.2771    1.9229    7.2815 H         1 <0>         0.0709
     42 H4         -2.4886    0.1753    7.5450 H         1 <0>         0.0672
     43 H5         -0.7419    2.7473    5.5878 H         1 <0>         0.1266
     44 H6          0.3859    2.2882    3.4478 H         1 <0>         0.1273
     45 H7         -1.2573   -1.4396    6.2147 H         1 <0>         0.1207
     46 H8         -0.7914   -2.9482    4.4584 H         1 <0>         0.0781
     47 H9         -0.2613   -2.3585    2.8648 H         1 <0>         0.0849
     48 H10         1.9038   -2.1294    4.6637 H         1 <0>         0.4016
     49 H11         2.6743   -6.0057    2.7552 H         1 <0>         0.1053
     50 H12         4.1465   -5.0486    2.4043 H         1 <0>         0.0931
     51 H13         2.7733   -7.2440    5.1709 H         1 <0>         0.0882
     52 H14         4.2951   -6.9156    6.0562 H         1 <0>         0.0914
     53 H15         1.3772   -4.1506    6.3083 H         1 <0>         0.0978
     54 H16         1.0787   -5.7455    5.5750 H         1 <0>         0.1270
     55 H17         0.8593   -5.8303    8.0513 H         1 <0>         0.1397
     56 H18         2.2075   -6.8437    7.4835 H         1 <0>         0.1339
     57 H19         2.4690   -4.0976    8.4819 H         1 <0>         0.4274
     58 H20         4.8205   -4.5956    8.5257 H         1 <0>         0.1404
     59 H21         4.4335   -6.1499    7.7500 H         1 <0>         0.1348
     60 H22         5.1311   -4.4822    6.0604 H         1 <0>         0.1183
     61 H23         3.8398   -3.3830    6.6034 H         1 <0>         0.0969
     62 H24         5.3575   -7.1251    1.4878 H         1 <0>         0.1004
     63 H25         6.3086   -5.7711    2.1440 H         1 <0>         0.0978
     64 H26         6.5373   -6.0975    0.0988 H         1 <0>         0.1423
     65 H27         7.7169   -5.8854   -2.0480 H         1 <0>         0.1425
     66 H28         9.7813   -7.1497   -2.4599 H         1 <0>         0.1462
     67 H29        12.3606  -10.2223    0.1434 H         1 <0>         0.1676
     68 H30        12.4944   -7.9556   -1.9736 H         1 <0>         0.0937
     69 H31        12.2693   -9.7014   -2.2378 H         1 <0>         0.0874
     70 H32        11.0618   -8.5457   -2.8499 H         1 <0>         0.0831
     71 H33         1.9548   -0.2229    2.4869 H         1 <0>         0.0702
     72 H34         0.4884   -1.0357    1.8893 H         1 <0>         0.0698
     73 H35         0.7061    0.7116    1.6292 H         1 <0>         0.0715
     74 H36         2.7866   -5.4536    9.3593 H         1 <0>         0.4348
@<TRIPOS>BOND
     1    1    2 1
     2    1   40 1
     3    1   41 1
     4    1   42 1
     5    2    7 ar
     6    2    3 ar
     7    3    4 ar
     8    3   43 1
     9    4    5 ar
    10    4   44 1
    11    5    6 ar
    12    5   39 1
    13    6    7 ar
    14    6    8 1
    15    7   45 1
    16    8    9 1
    17    8   46 1
    18    8   47 1
    19    9   10 am
    20    9   48 1
    21   10   11 2
    22   10   12 1
    23   12   13 1
    24   12   17 1
    25   12   14 1
    26   14   15 1
    27   14   49 1
    28   14   50 1
    29   15   16 1
    30   15   23 am
    31   16   17 1
    32   16   51 1
    33   16   52 1
    34   17   22 1
    35   17   18 1
    36   18   19 1
    37   18   53 1
    38   18   54 1
    39   19   20 1
    40   19   55 1
    41   19   56 1
    42   20   21 1
    43   20   57 1
    44   20   74 1
    45   21   22 1
    46   21   58 1
    47   21   59 1
    48   22   60 1
    49   22   61 1
    50   23   24 2
    51   23   25 1
    52   25   26 1
    53   25   62 1
    54   25   63 1
    55   26   27 1
    56   27   32 ar
    57   27   28 ar
    58   28   29 ar
    59   28   64 1
    60   29   30 ar
    61   29   65 1
    62   30   31 ar
    63   30   66 1
    64   31   37 1
    65   31   32 ar
    66   32   33 1
    67   33   34 1
    68   34   35 2
    69   34   36 1
    70   36   37 2
    71   36   67 1
    72   37   38 1
    73   38   68 1
    74   38   69 1
    75   38   70 1
    76   39   71 1
    77   39   72 1
    78   39   73 1
@<TRIPOS>MOLECULE
ZINC39675433
   72    75     0     0     0
SMALL
USER_CHARGES

@<TRIPOS>ATOM
      1 C1          0.1757    1.3640    0.8066 C.3       1 <0>        -0.0860
      2 C2          0.0934   -0.0759    0.3697 C.2       1 <0>         0.0441
      3 C3         -0.9350   -0.9040    0.6089 C.2       1 <0>        -0.2002
      4 C4         -0.5687   -2.1901   -0.0021 C.2       1 <0>        -0.1539
      5 C5          0.6636   -1.9967   -0.5543 C.2       1 <0>        -0.0381
      6 O1          1.0346   -0.7332   -0.3256 O.3       1 <0>        -0.1408
      7 C6          1.4674   -3.0303   -1.3003 C.3       1 <0>         0.5494
      8 F1          1.1505   -2.9741   -2.6617 F         1 <0>        -0.1627
      9 F2          2.8318   -2.7733   -1.1281 F         1 <0>        -0.1645
     10 F3          1.1662   -4.3030   -0.8035 F         1 <0>        -0.1273
     11 C7         -1.3663   -3.4293   -0.0152 C.2       1 <0>         0.6124
     12 O2         -0.8136   -4.5070   -0.1250 O.2       1 <0>        -0.5049
     13 N1         -2.7082   -3.3683    0.0944 N.am      1 <0>        -0.6080
     14 C8         -3.5635   -2.1583    0.1178 C.3       1 <0>         0.1099
     15 C9         -4.8073   -2.5434   -0.7142 C.3       1 <0>        -0.1157
     16 H1         -5.7059   -2.1075   -0.2774 H         1 <0>         0.1169
     17 C10        -4.8675   -4.0784   -0.6426 C.3       1 <0>        -0.0717
     18 C11        -3.6626   -4.4967    0.2124 C.3       1 <0>         0.1094
     19 C12        -4.7483   -4.6777   -2.0405 C.3       1 <0>        -0.1471
     20 C13        -4.8681   -6.2016   -1.9493 C.3       1 <0>        -0.0102
     21 N2         -6.1604   -6.5576   -1.3510 N.4       1 <0>        -0.5049
     22 C14        -6.2296   -6.0563    0.0269 C.3       1 <0>        -0.0104
     23 C15        -6.1671   -4.5263    0.0193 C.3       1 <0>        -0.1334
     24 C16        -4.6452   -2.0883   -2.1417 C.2       1 <0>         0.5146
     25 O3         -3.5500   -2.1040   -2.6625 O.2       1 <0>        -0.5151
     26 N3         -5.7172   -1.6639   -2.8396 N.am      1 <0>        -0.7222
     27 C17        -5.5596   -1.2215   -4.2273 C.3       1 <0>         0.1420
     28 H2         -4.7916   -1.8219   -4.7150 H         1 <0>         0.0910
     29 C18        -5.1459    0.2513   -4.2492 C.3       1 <0>        -0.1672
     30 C19        -6.8866   -1.3897   -4.9700 C.3       1 <0>        -0.1264
     31 C20        -7.2378   -2.8763   -5.0565 C.3       1 <0>        -0.0660
     32 C21        -8.5449   -3.0419   -5.7881 C.ar      1 <0>        -0.1325
     33 C22        -9.7353   -3.0327   -5.0849 C.ar      1 <0>        -0.0795
     34 C23       -10.9348   -3.1848   -5.7532 C.ar      1 <0>        -0.1509
     35 C24       -10.9442   -3.3463   -7.1310 C.ar      1 <0>         0.1310
     36 C25        -9.7484   -3.3547   -7.8343 C.ar      1 <0>        -0.2038
     37 C26        -8.5519   -3.1971   -7.1620 C.ar      1 <0>        -0.0739
     38 O4        -12.1229   -3.4966   -7.7906 O.3       1 <0>        -0.3165
     39 C27       -12.0566   -3.6581   -9.2089 C.3       1 <0>         0.0252
     40 H3          1.1201    1.7922    0.4708 H         1 <0>         0.0880
     41 H4         -0.6522    1.9236    0.3712 H         1 <0>         0.0979
     42 H5          0.1186    1.4177    1.8937 H         1 <0>         0.0994
     43 H6         -1.8455   -0.6730    1.1417 H         1 <0>         0.1694
     44 H7         -3.8509   -1.9158    1.1409 H         1 <0>         0.0915
     45 H8         -3.0445   -1.3171   -0.3417 H         1 <0>         0.1015
     46 H9         -3.2192   -5.4124   -0.1788 H         1 <0>         0.0911
     47 H10        -3.9646   -4.6326    1.2508 H         1 <0>         0.0874
     48 H11        -5.5454   -4.2873   -2.6731 H         1 <0>         0.0950
     49 H12        -3.7811   -4.4137   -2.4683 H         1 <0>         0.1266
     50 H13        -4.7997   -6.6317   -2.9485 H         1 <0>         0.1386
     51 H14        -4.0611   -6.5929   -1.3298 H         1 <0>         0.1349
     52 H15        -6.9053   -6.1478   -1.8943 H         1 <0>         0.4273
     53 H16        -7.1649   -6.3792    0.4842 H         1 <0>         0.1402
     54 H17        -5.3904   -6.4512    0.5995 H         1 <0>         0.1332
     55 H18        -6.2002   -4.1557    1.0438 H         1 <0>         0.1220
     56 H19        -7.0152   -4.1302   -0.5391 H         1 <0>         0.0981
     57 H20        -6.5931   -1.6513   -2.4231 H         1 <0>         0.3987
     58 H21        -5.0286    0.5804   -5.2817 H         1 <0>         0.0702
     59 H22        -5.9138    0.8517   -3.7615 H         1 <0>         0.0596
     60 H23        -4.2005    0.3711   -3.7200 H         1 <0>         0.0618
     61 H24        -7.6735   -0.8611   -4.4321 H         1 <0>         0.0735
     62 H25        -6.7947   -0.9789   -5.9755 H         1 <0>         0.0856
     63 H26        -6.4508   -3.4049   -5.5944 H         1 <0>         0.0703
     64 H27        -7.3296   -3.2870   -4.0510 H         1 <0>         0.0611
     65 H28        -9.7275   -2.9070   -4.0123 H         1 <0>         0.1240
     66 H29       -11.8644   -3.1783   -5.2034 H         1 <0>         0.1315
     67 H30        -9.7532   -3.4803   -8.9070 H         1 <0>         0.1304
     68 H31        -7.6210   -3.1991   -7.7095 H         1 <0>         0.1245
     69 H32       -13.0643   -3.7675   -9.6097 H         1 <0>         0.1050
     70 H33       -11.5822   -2.7827   -9.6525 H         1 <0>         0.0582
     71 H34       -11.4726   -4.5473   -9.4464 H         1 <0>         0.0571
     72 H35        -6.2630   -7.5614   -1.3478 H         1 <0>         0.4342
@<TRIPOS>BOND
     1    1    2 1
     2    1   40 1
     3    1   41 1
     4    1   42 1
     5    2    6 1
     6    2    3 2
     7    3    4 1
     8    3   43 1
     9    4    5 2
    10    4   11 1
    11    5    6 1
    12    5    7 1
    13    7    8 1
    14    7    9 1
    15    7   10 1
    16   11   12 2
    17   11   13 am
    18   13   18 1
    19   13   14 1
    20   14   15 1
    21   14   44 1
    22   14   45 1
    23   15   16 1
    24   15   17 1
    25   15   24 1
    26   17   23 1
    27   17   18 1
    28   17   19 1
    29   18   46 1
    30   18   47 1
    31   19   20 1
    32   19   48 1
    33   19   49 1
    34   20   21 1
    35   20   50 1
    36   20   51 1
    37   21   22 1
    38   21   52 1
    39   21   72 1
    40   22   23 1
    41   22   53 1
    42   22   54 1
    43   23   55 1
    44   23   56 1
    45   24   25 2
    46   24   26 am
    47   26   27 1
    48   26   57 1
    49   27   28 1
    50   27   29 1
    51   27   30 1
    52   29   58 1
    53   29   59 1
    54   29   60 1
    55   30   31 1
    56   30   61 1
    57   30   62 1
    58   31   32 1
    59   31   63 1
    60   31   64 1
    61   32   37 ar
    62   32   33 ar
    63   33   34 ar
    64   33   65 1
    65   34   35 ar
    66   34   66 1
    67   35   36 ar
    68   35   38 1
    69   36   37 ar
    70   36   67 1
    71   37   68 1
    72   38   39 1
    73   39   69 1
    74   39   70 1
    75   39   71 1
@<TRIPOS>MOLECULE
ZINC40988880
   76    80     0     0     0
SMALL
USER_CHARGES

@<TRIPOS>ATOM
      1 C1         -3.4055   -6.9688    0.3802 C.3       1 <0>         0.0213
      2 O1         -2.3529   -6.8233   -0.5753 O.3       1 <0>        -0.3097
      3 C2         -1.5945   -5.6976   -0.4918 C.ar      1 <0>         0.1198
      4 C3         -1.8558   -4.7568    0.4936 C.ar      1 <0>        -0.1430
      5 C4         -1.0859   -3.6134    0.5782 C.ar      1 <0>        -0.1472
      6 C5         -0.0509   -3.4059   -0.3219 C.ar      1 <0>         0.1280
      7 C6          0.2106   -4.3467   -1.3067 C.ar      1 <0>        -0.1324
      8 C7         -0.5563   -5.4929   -1.3880 C.ar      1 <0>        -0.1350
      9 C8          1.3349   -4.1213   -2.2845 C.3       1 <0>         0.0822
     10 H1          1.4134   -3.0576   -2.5090 H         1 <0>         0.1667
     11 C9          2.6488   -4.6118   -1.6728 C.3       1 <0>         0.1040
     12 N1          2.5922   -6.0648   -1.4948 N.am      1 <0>        -0.7397
     13 C10         3.6042   -6.7083   -0.8799 C.2       1 <0>         0.6184
     14 O2          4.5640   -6.0830   -0.4729 O.2       1 <0>        -0.5014
     15 C11         3.5471   -8.1734   -0.7004 C.2       1 <0>        -0.0160
     16 C12         4.5142   -8.9810   -0.0789 C.2       1 <0>        -0.1315
     17 C13         4.0403  -10.2495   -0.1477 C.2       1 <0>         0.0240
     18 N2          2.8535  -10.1970   -0.7745 N.pl3     1 <0>        -0.2554
     19 N3          2.5734   -8.9792   -1.0883 N.2       1 <0>        -0.2702
     20 C14         2.0001  -11.3542   -1.0551 C.3       1 <0>         0.1444
     21 H2          2.4796  -12.2623   -0.6898 H         1 <0>         0.1362
     22 C15         1.7596  -11.4670   -2.5696 C.3       1 <0>        -0.1345
     23 C16         0.6175  -12.4736   -2.8491 C.3       1 <0>        -0.5759
     24 S1         -0.4046  -12.3581   -1.3244 S.o2      1 <0>         2.3780
     25 O3         -1.6447  -11.7426   -1.6447 O.2       1 <0>        -0.9198
     26 O4         -0.3984  -13.6180   -0.6673 O.2       1 <0>        -0.9169
     27 C17         0.6214  -11.1714   -0.3585 C.3       1 <0>        -0.5996
     28 C18         4.7696  -11.4496    0.3994 C.3       1 <0>        -0.0565
     29 C19         6.2342  -11.0587    0.6341 C.3       1 <0>        -0.1153
     30 C20         6.2973   -9.7544    1.4335 C.3       1 <0>        -0.1242
     31 C21         5.8215   -8.5905    0.5535 C.3       1 <0>        -0.0449
     32 N4          1.0636   -4.8643   -3.5223 N.4       1 <0>        -0.3848
     33 C22         2.2063   -4.7281   -4.4334 C.3       1 <0>        -0.0161
     34 C23         1.9639   -5.5660   -5.6907 C.3       1 <0>        -0.1436
     35 C24         0.6919   -5.0745   -6.3876 C.3       1 <0>        -0.1382
     36 C25        -0.4795   -5.1513   -5.4041 C.3       1 <0>        -0.1448
     37 C26        -0.1464   -4.3287   -4.1575 C.3       1 <0>        -0.0127
     38 O5          0.7069   -2.2799   -0.2389 O.3       1 <0>        -0.3162
     39 C27         0.3812   -1.3538    0.7996 C.3       1 <0>         0.0233
     40 H3         -2.9852   -6.9728    1.3859 H         1 <0>         0.0606
     41 H4         -4.1034   -6.1374    0.2814 H         1 <0>         0.0618
     42 H5         -3.9306   -7.9072    0.2021 H         1 <0>         0.1119
     43 H6         -2.6616   -4.9183    1.1944 H         1 <0>         0.1448
     44 H7         -1.2898   -2.8806    1.3449 H         1 <0>         0.1465
     45 H8         -0.3500   -6.2275   -2.1524 H         1 <0>         0.1265
     46 H9          3.4754   -4.3590   -2.3368 H         1 <0>         0.1015
     47 H10         2.8003   -4.1328   -0.7055 H         1 <0>         0.1204
     48 H11         1.8263   -6.5637   -1.8195 H         1 <0>         0.3964
     49 H12         1.4855  -10.4895   -2.9663 H         1 <0>         0.1013
     50 H13         2.6722  -11.8110   -3.0563 H         1 <0>         0.1077
     51 H14         0.0419  -12.1718   -3.7241 H         1 <0>         0.1522
     52 H15         1.0128  -13.4817   -2.9740 H         1 <0>         0.1500
     53 H16         0.6698  -11.4569    0.6923 H         1 <0>         0.1523
     54 H17         0.2551  -10.1509   -0.4710 H         1 <0>         0.1536
     55 H18         4.3159  -11.7569    1.3417 H         1 <0>         0.0891
     56 H19         4.7185  -12.2688   -0.3178 H         1 <0>         0.0830
     57 H20         6.7362  -11.8500    1.1909 H         1 <0>         0.0798
     58 H21         6.7311  -10.9201   -0.3261 H         1 <0>         0.0704
     59 H22         5.6538   -9.8339    2.3097 H         1 <0>         0.0662
     60 H23         7.3238   -9.5729    1.7521 H         1 <0>         0.0760
     61 H24         6.5601   -8.3910   -0.2228 H         1 <0>         0.0790
     62 H25         5.6817   -7.6998    1.1661 H         1 <0>         0.0841
     63 H26         2.3252   -3.6811   -4.7125 H         1 <0>         0.1355
     64 H27         3.1113   -5.0753   -3.9349 H         1 <0>         0.1331
     65 H28         2.8126   -5.4621   -6.3666 H         1 <0>         0.1144
     66 H29         1.8451   -6.6133   -5.4128 H         1 <0>         0.0858
     67 H30         0.8291   -4.0427   -6.7112 H         1 <0>         0.0837
     68 H31         0.4835   -5.7043   -7.2525 H         1 <0>         0.0948
     69 H32        -1.3771   -4.7509   -5.8752 H         1 <0>         0.1143
     70 H33        -0.6489   -6.1899   -5.1203 H         1 <0>         0.0868
     71 H34        -0.9784   -4.3811   -3.4552 H         1 <0>         0.1332
     72 H35         0.0225   -3.2903   -4.4424 H         1 <0>         0.1332
     73 H36        -0.6442   -1.0078    0.6694 H         1 <0>         0.0627
     74 H37         0.4789   -1.8446    1.7679 H         1 <0>         0.0630
     75 H38         1.0605   -0.5026    0.7535 H         1 <0>         0.1115
     76 H39         0.9243   -5.8396   -3.3043 H         1 <0>         0.4125
@<TRIPOS>BOND
     1    1    2 1
     2    1   40 1
     3    1   41 1
     4    1   42 1
     5    2    3 1
     6    3    8 ar
     7    3    4 ar
     8    4    5 ar
     9    4   43 1
    10    5    6 ar
    11    5   44 1
    12    6    7 ar
    13    6   38 1
    14    7    8 ar
    15    7    9 1
    16    8   45 1
    17    9   10 1
    18    9   11 1
    19    9   32 1
    20   11   12 1
    21   11   46 1
    22   11   47 1
    23   12   13 am
    24   12   48 1
    25   13   14 2
    26   13   15 1
    27   15   19 2
    28   15   16 1
    29   16   31 1
    30   16   17 2
    31   17   18 1
    32   17   28 1
    33   18   19 1
    34   18   20 1
    35   20   21 1
    36   20   27 1
    37   20   22 1
    38   22   23 1
    39   22   49 1
    40   22   50 1
    41   23   24 1
    42   23   51 1
    43   23   52 1
    44   24   25 2
    45   24   26 2
    46   24   27 1
    47   27   53 1
    48   27   54 1
    49   28   29 1
    50   28   55 1
    51   28   56 1
    52   29   30 1
    53   29   57 1
    54   29   58 1
    55   30   31 1
    56   30   59 1
    57   30   60 1
    58   31   61 1
    59   31   62 1
    60   32   37 1
    61   32   33 1
    62   32   76 1
    63   33   34 1
    64   33   63 1
    65   33   64 1
    66   34   35 1
    67   34   65 1
    68   34   66 1
    69   35   36 1
    70   35   67 1
    71   35   68 1
    72   36   37 1
    73   36   69 1
    74   36   70 1
    75   37   71 1
    76   37   72 1
    77   38   39 1
    78   39   73 1
    79   39   74 1
    80   39   75 1
@<TRIPOS>MOLECULE
ZINC02110215
   48    52     0     0     0
SMALL
USER_CHARGES
(4-nitrophenyl)-phenyl-BLAH
@<TRIPOS>ATOM
      1 C1          6.3880   -3.5978   -0.2351 C.ar      1 <0>        -0.0878
      2 C2          5.9939   -3.2262    1.0367 C.ar      1 <0>        -0.1038
      3 C3          5.4012   -1.9948    1.2445 C.ar      1 <0>        -0.0842
      4 C4          5.2033   -1.1346    0.1806 C.ar      1 <0>        -0.1463
      5 C5          5.5930   -1.5082   -1.0920 C.ar      1 <0>        -0.1214
      6 C6          6.1897   -2.7378   -1.2991 C.ar      1 <0>        -0.1031
      7 C7          4.5572    0.2078    0.4072 C.3       1 <0>         0.0864
      8 H1          4.6378    0.4770    1.4603 H         1 <0>         0.1456
      9 C8          3.0761    0.1368    0.0088 C.3       1 <0>        -0.0584
     10 C9          2.5365    1.5440   -0.0192 C.2       1 <0>        -0.1386
     11 C10         1.1492    1.9889   -0.0315 C.ar      1 <0>        -0.0980
     12 C11        -0.0869    1.3383   -0.0254 C.ar      1 <0>        -0.0674
     13 C12        -1.2405    2.0693   -0.0450 C.ar      1 <0>        -0.1287
     14 C13        -1.1962    3.4568   -0.0603 C.ar      1 <0>        -0.0744
     15 C14         0.0109    4.1202   -0.0673 C.ar      1 <0>        -0.1285
     16 C15         1.1986    3.3968   -0.0532 C.ar      1 <0>         0.1162
     17 N1          2.5286    3.7600   -0.0550 N.pl3     1 <0>        -0.5715
     18 H2          2.8566    4.6728   -0.0683 H         1 <0>         0.4232
     19 C16         3.3149    2.6454   -0.0350 C.2       1 <0>         0.0161
     20 C17         4.8249    2.5842   -0.0320 C.3       1 <0>         0.1650
     21 H3          5.2227    3.3010   -0.7504 H         1 <0>         0.1686
     22 C18         5.3431    2.9061    1.3460 C.ar      1 <0>        -0.0911
     23 C19         4.6007    3.7064    2.1941 C.ar      1 <0>        -0.0822
     24 C20         5.0742    3.9985    3.4595 C.ar      1 <0>        -0.0390
     25 C21         6.2938    3.4970    3.8739 C.ar      1 <0>        -0.0164
     26 C22         7.0387    2.7009    3.0239 C.ar      1 <0>        -0.0377
     27 C23         6.5634    2.4057    1.7599 C.ar      1 <0>        -0.1186
     28 N2          6.8025    3.8127    5.2276 N.pl3     1 <0>         0.0136
     29 O1          7.8774    3.3711    5.5926 O.2       1 <0>        -0.1352
     30 O2          6.1463    4.5141    5.9766 O.3       1 <0>        -0.1348
     31 H4          6.8511   -4.5599   -0.3975 H         1 <0>         0.1372
     32 H5          6.1488   -3.8981    1.8679 H         1 <0>         0.1383
     33 H6          5.0930   -1.7047    2.2381 H         1 <0>         0.1330
     34 H7          5.4344   -0.8379   -1.9238 H         1 <0>         0.1207
     35 H8          6.4979   -3.0280   -2.2927 H         1 <0>         0.1369
     36 H9          2.9810   -0.3144   -0.9788 H         1 <0>         0.1064
     37 H10         2.5254   -0.4548    0.7401 H         1 <0>         0.1241
     38 H11        -0.1303    0.2593   -0.0097 H         1 <0>         0.1285
     39 H12        -2.1949    1.5638   -0.0447 H         1 <0>         0.1339
     40 H13        -2.1169    4.0213   -0.0712 H         1 <0>         0.1374
     41 H14         0.0350    5.1998   -0.0834 H         1 <0>         0.1300
     42 H15         3.6493    4.1010    1.8691 H         1 <0>         0.1527
     43 H16         4.4924    4.6207    4.1235 H         1 <0>         0.1684
     44 H17         7.9917    2.3094    3.3476 H         1 <0>         0.1696
     45 H18         7.1453    1.7838    1.0958 H         1 <0>         0.1457
     46 N3          5.2450    1.2196   -0.4215 N.4       1 <0>        -0.5095
     47 H19         5.0106    1.0632   -1.4089 H         1 <0>         0.4413
     48 H20         6.2595    1.1289   -0.2921 H         1 <0>         0.4378
@<TRIPOS>BOND
     1    1    6 ar
     2    1    2 ar
     3    1   31 1
     4    2    3 ar
     5    2   32 1
     6    3    4 ar
     7    3   33 1
     8    4    5 ar
     9    4    7 1
    10    5    6 ar
    11    5   34 1
    12    6   35 1
    13    7    8 1
    14    7    9 1
    15    7   46 1
    16    9   10 1
    17    9   36 1
    18    9   37 1
    19   10   19 2
    20   10   11 1
    21   11   16 ar
    22   11   12 ar
    23   12   13 ar
    24   12   38 1
    25   13   14 ar
    26   13   39 1
    27   14   15 ar
    28   14   40 1
    29   15   16 ar
    30   15   41 1
    31   16   17 1
    32   17   18 1
    33   17   19 1
    34   19   20 1
    35   20   21 1
    36   20   22 1
    37   20   46 1
    38   22   27 ar
    39   22   23 ar
    40   23   24 ar
    41   23   42 1
    42   24   25 ar
    43   24   43 1
    44   25   26 ar
    45   25   28 1
    46   26   27 ar
    47   26   44 1
    48   27   45 1
    49   28   29 2
    50   28   30 1
    51   46   47 1
    52   46   48 1
@<TRIPOS>MOLECULE
ZINC12293636
   54    57     0     0     0
SMALL
USER_CHARGES
(4R)-1'-[(2S)-2-(3,4-dichlorophenyl)-2-hydroxy-ethyl]-6-methyl-spiro[chroman-2,4'-piperidine]-4-ol
@<TRIPOS>ATOM
      1 C1          0.1104    1.9865    4.9141 C.3       1 <0>        -0.1196
      2 C2         -0.6443    1.9979    3.6097 C.ar      1 <0>        -0.0985
      3 C3         -1.9528    2.4437    3.5713 C.ar      1 <0>        -0.0798
      4 C4         -2.6421    2.4557    2.3763 C.ar      1 <0>        -0.1387
      5 C5         -2.0251    2.0203    1.2076 C.ar      1 <0>         0.1222
      6 C6         -0.7170    1.5713    1.2496 C.ar      1 <0>        -0.1917
      7 C7         -0.0296    1.5626    2.4520 C.ar      1 <0>        -0.0807
      8 C8         -0.0127    1.0858    0.0080 C.3       1 <0>         0.1524
      9 H1          0.0021   -0.0041    0.0020 H         1 <0>         0.0699
     10 C9         -0.7517    1.5922   -1.2334 C.3       1 <0>        -0.1425
     11 C10        -2.2455    1.3027   -1.0587 C.3       1 <0>         0.1161
     12 O1         -2.7322    2.0591    0.0482 O.3       1 <0>        -0.3064
     13 C11        -2.9948    1.7037   -2.3308 C.3       1 <0>        -0.1294
     14 C12        -4.4766    1.3524   -2.1779 C.3       1 <0>        -0.0052
     15 C13        -3.9476   -0.4855   -0.6896 C.3       1 <0>         0.0037
     16 C14        -2.4496   -0.1906   -0.7975 C.3       1 <0>        -0.1749
     17 C15        -6.0307   -0.4863   -1.9230 C.3       1 <0>        -0.0393
     18 C16        -6.6288   -0.2863   -3.3170 C.3       1 <0>         0.1353
     19 H2         -6.4693    0.7436   -3.6365 H         1 <0>         0.1357
     20 C17        -8.1071   -0.5761   -3.2756 C.ar      1 <0>        -0.1276
     21 C18        -9.0137    0.4654   -3.2051 C.ar      1 <0>        -0.0836
     22 C19       -10.3697    0.2010   -3.1671 C.ar      1 <0>        -0.0908
     23 C20       -10.8206   -1.1065   -3.2000 C.ar      1 <0>        -0.0179
     24 C21        -9.9129   -2.1494   -3.2710 C.ar      1 <0>        -0.0290
     25 C22        -8.5560   -1.8827   -3.3138 C.ar      1 <0>        -0.0879
     26 Cl1       -10.4771   -3.7907   -3.3124 Cl        1 <0>        -0.0269
     27 Cl2       -12.5238   -1.4393   -3.1529 Cl        1 <0>        -0.0242
     28 O2         -5.9949   -1.1748   -4.2393 O.3       1 <0>        -0.5439
     29 O3          1.3282    1.5798   -0.0021 O.3       1 <0>        -0.5504
     30 H3          0.6236    2.9391    5.0452 H         1 <0>         0.0762
     31 H4         -0.5883    1.8339    5.7367 H         1 <0>         0.0713
     32 H5          0.8416    1.1783    4.9037 H         1 <0>         0.0694
     33 H6         -2.4347    2.7828    4.4764 H         1 <0>         0.1355
     34 H7         -3.6639    2.8042    2.3478 H         1 <0>         0.1327
     35 H8          0.9921    1.2140    2.4845 H         1 <0>         0.1266
     36 H9         -0.5958    2.6656   -1.3411 H         1 <0>         0.0989
     37 H10        -0.3795    1.0760   -2.1183 H         1 <0>         0.0979
     38 H11        -2.8901    2.7767   -2.4917 H         1 <0>         0.1266
     39 H12        -2.5794    1.1655   -3.1827 H         1 <0>         0.1122
     40 H13        -5.0095    1.6206   -3.0902 H         1 <0>         0.1339
     41 H14        -4.8959    1.9045   -1.3368 H         1 <0>         0.1400
     42 H15        -4.0966   -1.5520   -0.5207 H         1 <0>         0.1322
     43 H16        -4.3693    0.0765    0.1437 H         1 <0>         0.1358
     44 H17        -2.0240   -0.7653   -1.6201 H         1 <0>         0.1076
     45 H18        -1.9557   -0.4678    0.1338 H         1 <0>         0.1189
     46 H19        -6.1109   -1.5359   -1.6404 H         1 <0>         0.1360
     47 H20        -6.5737    0.1263   -1.2033 H         1 <0>         0.1462
     48 H21        -8.6620    1.4862   -3.1794 H         1 <0>         0.1446
     49 H22       -11.0773    1.0150   -3.1121 H         1 <0>         0.1532
     50 H23        -7.8475   -2.6956   -3.3730 H         1 <0>         0.1418
     51 H24        -6.0960   -2.1104   -4.0169 H         1 <0>         0.3900
     52 H25         1.8572    1.2971    0.7564 H         1 <0>         0.3864
     53 N1         -4.6039   -0.1042   -1.9582 N.4       1 <0>        -0.3908
     54 H26        -4.1452   -0.5990   -2.7322 H         1 <0>         0.4307
@<TRIPOS>BOND
     1    1    2 1
     2    1   30 1
     3    1   31 1
     4    1   32 1
     5    2    7 ar
     6    2    3 ar
     7    3    4 ar
     8    3   33 1
     9    4    5 ar
    10    4   34 1
    11    5   12 1
    12    5    6 ar
    13    6    7 ar
    14    6    8 1
    15    7   35 1
    16    8    9 1
    17    8   10 1
    18    8   29 1
    19   10   11 1
    20   10   36 1
    21   10   37 1
    22   11   16 1
    23   11   12 1
    24   11   13 1
    25   13   14 1
    26   13   38 1
    27   13   39 1
    28   14   40 1
    29   14   41 1
    30   14   53 1
    31   15   16 1
    32   15   42 1
    33   15   43 1
    34   15   53 1
    35   16   44 1
    36   16   45 1
    37   17   18 1
    38   17   46 1
    39   17   47 1
    40   17   53 1
    41   18   19 1
    42   18   20 1
    43   18   28 1
    44   20   25 ar
    45   20   21 ar
    46   21   22 ar
    47   21   48 1
    48   22   23 ar
    49   22   49 1
    50   23   24 ar
    51   23   27 1
    52   24   25 ar
    53   24   26 1
    54   25   50 1
    55   28   51 1
    56   29   52 1
    57   53   54 1
@<TRIPOS>MOLECULE
ZINC20762918
   53    56     0     0     0
SMALL
USER_CHARGES
4-bromo-2-[(2S,4R)-2-(2-methoxyphenyl)-6-(p-tolyl)-2,3,4,5-tetrahydropyrimidin-4-yl]phenol
@<TRIPOS>ATOM
      1 C1         -5.5217    1.6129    5.8141 C.3       1 <0>        -0.1305
      2 C2         -4.6561    1.5390    4.5827 C.ar      1 <0>        -0.0448
      3 C3         -5.2257    1.2408    3.3575 C.ar      1 <0>        -0.1319
      4 C4         -4.4392    1.1715    2.2262 C.ar      1 <0>        -0.0537
      5 C5         -3.0654    1.4032    2.3197 C.ar      1 <0>        -0.1006
      6 C6         -2.4965    1.6984    3.5602 C.ar      1 <0>        -0.0800
      7 C7         -3.2955    1.7692    4.6825 C.ar      1 <0>        -0.1283
      8 C8         -2.2175    1.3303    1.1136 C.2       1 <0>         0.2581
      9 N1         -2.7721    1.0520   -0.0055 N.2       1 <0>        -0.4967
     10 C9         -2.0537    0.9379   -1.2686 C.3       1 <0>         0.2756
     11 H1         -1.9010   -0.1327   -1.4697 H         1 <0>         0.1525
     12 N2         -0.7368    1.5796   -1.1759 N.4       1 <0>        -0.5717
     13 C10        -0.0127    1.0858    0.0080 C.3       1 <0>         0.1078
     14 H2          0.0175   -0.0130   -0.0327 H         1 <0>         0.1510
     15 C11        -0.7420    1.5860    1.2588 C.3       1 <0>        -0.1499
     16 C12         1.3989    1.6135   -0.0026 C.ar      1 <0>        -0.1783
     17 C13         1.6979    2.7740   -0.6902 C.ar      1 <0>        -0.0606
     18 C14         2.9924    3.2615   -0.6959 C.ar      1 <0>        -0.1232
     19 C15         3.9925    2.5823   -0.0229 C.ar      1 <0>        -0.0245
     20 C16         3.6988    1.4190    0.6613 C.ar      1 <0>        -0.1919
     21 C17         2.3999    0.9313    0.6730 C.ar      1 <0>         0.2111
     22 O1          2.1089   -0.2135    1.3453 O.3       1 <0>        -0.5055
     23 Br1         3.3974    4.8540   -1.6318 Br        1 <0>        -0.0210
     24 C18        -2.8550    1.6040   -2.3573 C.ar      1 <0>        -0.1740
     25 C19        -2.2095    2.2497   -3.3944 C.ar      1 <0>        -0.0890
     26 C20        -2.9440    2.8609   -4.3934 C.ar      1 <0>        -0.1453
     27 C21        -4.3260    2.8274   -4.3579 C.ar      1 <0>        -0.0488
     28 C22        -4.9760    2.1825   -3.3238 C.ar      1 <0>        -0.2036
     29 C23        -4.2411    1.5645   -2.3222 C.ar      1 <0>         0.1873
     30 O2         -4.8783    0.9252   -1.3062 O.3       1 <0>        -0.2791
     31 C24        -6.3070    0.9247   -1.3347 C.3       1 <0>         0.0125
     32 H3         -6.5664    1.4027    5.5411 H         1 <0>         0.0716
     33 H4         -5.4524    2.6200    6.2511 H         1 <0>         0.0785
     34 H5         -5.1781    0.8699    6.5489 H         1 <0>         0.0787
     35 H6         -6.2883    1.0615    3.2867 H         1 <0>         0.1302
     36 H7         -4.8851    0.9390    1.2705 H         1 <0>         0.1414
     37 H8         -1.4339    1.8742    3.6403 H         1 <0>         0.1276
     38 H9         -2.8573    2.0012    5.6420 H         1 <0>         0.1318
     39 H10        -0.1518    1.3481   -2.0783 H         1 <0>         0.4529
     40 H11        -0.5670    2.6653    1.3788 H         1 <0>         0.1215
     41 H12        -0.3627    1.0526    2.1429 H         1 <0>         0.1406
     42 H13         0.9196    3.3030   -1.2201 H         1 <0>         0.1307
     43 H14         5.0034    2.9622   -0.0323 H         1 <0>         0.1480
     44 H15         4.4797    0.8891    1.1864 H         1 <0>         0.1509
     45 H16         2.9034   -0.7539    1.8808 H         1 <0>         0.4596
     46 H17        -1.1303    2.2772   -3.4243 H         1 <0>         0.1215
     47 H18        -2.4376    3.3657   -5.2028 H         1 <0>         0.1371
     48 H19        -4.8976    3.3057   -5.1396 H         1 <0>         0.1376
     49 H20        -6.0554    2.1563   -3.2967 H         1 <0>         0.1411
     50 H21        -6.6909    0.3772   -0.4613 H         1 <0>         0.1086
     51 H22        -6.6552    0.4354   -2.2563 H         1 <0>         0.0610
     52 H23        -6.6746    1.9611   -1.3084 H         1 <0>         0.0609
     53 H24        -0.8648    2.6688   -1.0913 H         1 <0>         0.4451
@<TRIPOS>BOND
     1    1    2 1
     2    1   32 1
     3    1   33 1
     4    1   34 1
     5    2    7 ar
     6    2    3 ar
     7    3    4 ar
     8    3   35 1
     9    4    5 ar
    10    4   36 1
    11    5    6 ar
    12    5    8 1
    13    6    7 ar
    14    6   37 1
    15    7   38 1
    16    8   15 1
    17    8    9 2
    18    9   10 1
    19   10   11 1
    20   10   12 1
    21   10   24 1
    22   12   13 1
    23   12   39 1
    24   12   53 1
    25   13   14 1
    26   13   15 1
    27   13   16 1
    28   15   40 1
    29   15   41 1
    30   16   21 ar
    31   16   17 ar
    32   17   18 ar
    33   17   42 1
    34   18   19 ar
    35   18   23 1
    36   19   20 ar
    37   19   43 1
    38   20   21 ar
    39   20   44 1
    40   21   22 1
    41   22   45 1
    42   24   29 ar
    43   24   25 ar
    44   25   26 ar
    45   25   46 1
    46   26   27 ar
    47   26   47 1
    48   27   28 ar
    49   27   48 1
    50   28   29 ar
    51   28   49 1
    52   29   30 1
    53   30   31 1
    54   31   50 1
    55   31   51 1
    56   31   52 1
@<TRIPOS>MOLECULE
ZINC40177145
   33    34     0     0     0
SMALL
USER_CHARGES

@<TRIPOS>ATOM
      1 C1         -0.0184    1.5028    0.0103 C.3       1 <0>        -0.1430
      2 C2          0.0021   -0.0041    0.0020 C.ar      1 <0>         0.0032
      3 C3          0.0057   -0.6888   -1.1991 C.ar      1 <0>        -0.0989
      4 C4          0.0245   -2.0707   -1.2067 C.ar      1 <0>        -0.0270
      5 C5          0.0400   -2.7685   -0.0132 C.ar      1 <0>        -0.0363
      6 C6          0.0373   -2.0840    1.1875 C.ar      1 <0>        -0.0661
      7 C7          0.0229   -0.7015    1.1951 C.ar      1 <0>        -0.1378
      8 C8          0.0251    0.0449    2.5043 C.3       1 <0>         0.1408
      9 H1         -0.6478    0.8997    2.4363 H         1 <0>         0.1683
     10 C9          1.4209    0.5271    2.8052 C.ar      1 <0>        -0.1328
     11 C10         2.3542   -0.3448    3.3341 C.ar      1 <0>        -0.1121
     12 C11         3.6344    0.0971    3.6103 C.ar      1 <0>        -0.0692
     13 C12         3.9816    1.4116    3.3574 C.ar      1 <0>        -0.0776
     14 C13         3.0477    2.2836    2.8282 C.ar      1 <0>        -0.0716
     15 C14         1.7693    1.8397    2.5470 C.ar      1 <0>        -0.0818
     16 I1          5.9217    2.0820    3.7764 I         1 <0>        -0.0019
     17 N1         -0.4263   -0.8495    3.5786 N.4       1 <0>        -0.6384
     18 N2          0.0591   -4.2485   -0.0213 N.pl3     1 <0>         0.0251
     19 O1          0.0611   -4.8473   -1.0717 O.2       1 <0>        -0.1290
     20 O2          0.0727   -4.8586    1.0223 O.3       1 <0>        -0.1523
     21 H2          1.0042    1.8801    0.0026 H         1 <0>         0.0988
     22 H3         -0.5455    1.8639   -0.8728 H         1 <0>         0.0950
     23 H4         -0.5286    1.8543    0.9071 H         1 <0>         0.0777
     24 H5         -0.0064   -0.1437   -2.1314 H         1 <0>         0.1639
     25 H6          0.0266   -2.6056   -2.1450 H         1 <0>         0.1684
     26 H7          0.0491   -2.6290    2.1198 H         1 <0>         0.1450
     27 H8          2.0829   -1.3713    3.5320 H         1 <0>         0.1283
     28 H9          4.3634   -0.5840    4.0238 H         1 <0>         0.1448
     29 H10         3.3186    3.3103    2.6306 H         1 <0>         0.1467
     30 H11         1.0413    2.5194    2.1294 H         1 <0>         0.1463
     31 H12        -0.4247   -0.3497    4.4552 H         1 <0>         0.4469
     32 H13        -1.3608   -1.1723    3.3771 H         1 <0>         0.4438
     33 H14         0.1967   -1.6407    3.6415 H         1 <0>         0.4326
@<TRIPOS>BOND
     1    1    2 1
     2    1   21 1
     3    1   22 1
     4    1   23 1
     5    2    7 ar
     6    2    3 ar
     7    3    4 ar
     8    3   24 1
     9    4    5 ar
    10    4   25 1
    11    5    6 ar
    12    5   18 1
    13    6    7 ar
    14    6   26 1
    15    7    8 1
    16    8    9 1
    17    8   10 1
    18    8   17 1
    19   10   15 ar
    20   10   11 ar
    21   11   12 ar
    22   11   27 1
    23   12   13 ar
    24   12   28 1
    25   13   14 ar
    26   13   16 1
    27   14   15 ar
    28   14   29 1
    29   15   30 1
    30   17   31 1
    31   17   32 1
    32   17   33 1
    33   18   19 2
    34   18   20 1
@<TRIPOS>MOLECULE
ZINC54621923
   46    49     0     0     0
SMALL
USER_CHARGES

@<TRIPOS>ATOM
      1 C1         -1.0561    1.1872   -0.3994 C.3       1 <0>        -0.1418
      2 C2         -0.7533   -0.2854   -0.2956 C.ar      1 <0>         0.1843
      3 C3         -0.6172   -1.0358   -1.4465 C.ar      1 <0>        -0.1714
      4 C4         -0.3382   -2.3921   -1.3449 C.ar      1 <0>         0.0429
      5 C5         -0.2056   -2.9463   -0.0844 C.ar      1 <0>        -0.1996
      6 C6         -0.3555   -2.1307    1.0323 C.ar      1 <0>         0.4527
      7 N1         -0.6162   -0.8397    0.8938 N.ar      1 <0>        -0.5021
      8 N2         -0.2253   -2.6745    2.3050 N.pl3     1 <0>        -0.6992
      9 C7          0.0685   -4.1007    2.4656 C.3       1 <0>         0.2927
     10 H1         -0.4451   -4.6672    1.6888 H         1 <0>         0.1348
     11 C8         -0.4052   -4.5617    3.8199 C.ar      1 <0>        -0.1249
     12 C9         -0.4724   -3.6496    4.8698 C.ar      1 <0>        -0.1135
     13 C10        -0.8961   -4.0344    6.1054 C.ar      1 <0>        -0.0781
     14 C11        -1.2719   -5.3692    6.3285 C.ar      1 <0>        -0.0933
     15 C12        -1.7155   -5.8041    7.5918 C.ar      1 <0>        -0.0556
     16 C13        -2.0649   -7.1166    7.7352 C.ar      1 <0>        -0.1558
     17 C14        -1.9763   -7.9824    6.6471 C.ar      1 <0>         0.1713
     18 N3         -1.5627   -7.5733    5.4724 N.ar      1 <0>        -0.4636
     19 C15        -1.2061   -6.3025    5.2653 C.ar      1 <0>         0.1135
     20 C16        -0.7674   -5.8665    3.9973 C.ar      1 <0>         0.1704
     21 O1         -0.7006   -6.7409    2.9599 O.3       1 <0>        -0.4773
     22 C17        -2.3659   -9.4272    6.8255 C.3       1 <0>        -0.1137
     23 C18         1.5545   -4.3236    2.3506 C.2       1 <0>        -0.2045
     24 C19         2.2216   -5.3262    1.7284 C.2       1 <0>        -0.1196
     25 C20         3.6037   -5.3269    1.7511 C.2       1 <0>        -0.1637
     26 C21         4.2510   -4.3249    2.3948 C.2       1 <0>        -0.1448
     27 S1          2.8931   -3.3314    2.9916 S.3       1 <0>         0.0553
     28 H2         -0.1225    1.7479   -0.4446 H         1 <0>         0.1140
     29 H3         -1.6373    1.3759   -1.3020 H         1 <0>         0.1178
     30 H4         -1.6277    1.5030    0.4734 H         1 <0>         0.0942
     31 H5         -0.7272   -0.5726   -2.4159 H         1 <0>         0.1808
     32 H6         -0.2275   -3.0008   -2.2302 H         1 <0>         0.1760
     33 H7          0.0110   -3.9981    0.0311 H         1 <0>         0.1773
     34 H8         -0.3289   -2.1096    3.0867 H         1 <0>         0.4182
     35 H9         -0.1839   -2.6225    4.7020 H         1 <0>         0.1217
     36 H10        -0.9428   -3.3162    6.9106 H         1 <0>         0.1408
     37 H11        -1.7776   -5.1190    8.4244 H         1 <0>         0.1481
     38 H12        -2.4091   -7.4831    8.6911 H         1 <0>         0.1471
     39 H13         0.1498   -7.1945    2.8820 H         1 <0>         0.3977
     40 H14        -3.4272   -9.5469    6.6078 H         1 <0>         0.0876
     41 H15        -1.7831  -10.0474    6.1444 H         1 <0>         0.0834
     42 H16        -2.1691   -9.7323    7.8532 H         1 <0>         0.0832
     43 H17         1.6814   -6.1129    1.2229 H         1 <0>         0.1410
     44 H18         4.1594   -6.1141    1.2635 H         1 <0>         0.1444
     45 H19         5.3128   -4.1665    2.5126 H         1 <0>         0.1928
     46 H20        -0.7125   -0.2889    1.6864 H         1 <0>         0.4385
@<TRIPOS>BOND
     1    1    2 1
     2    1   28 1
     3    1   29 1
     4    1   30 1
     5    2    7 ar
     6    2    3 ar
     7    3    4 ar
     8    3   31 1
     9    4    5 ar
    10    4   32 1
    11    5    6 ar
    12    5   33 1
    13    6    7 ar
    14    6    8 1
    15    7   46 1
    16    8    9 1
    17    8   34 1
    18    9   10 1
    19    9   11 1
    20    9   23 1
    21   11   20 ar
    22   11   12 ar
    23   12   13 ar
    24   12   35 1
    25   13   14 ar
    26   13   36 1
    27   14   19 ar
    28   14   15 ar
    29   15   16 ar
    30   15   37 1
    31   16   17 ar
    32   16   38 1
    33   17   18 ar
    34   17   22 1
    35   18   19 ar
    36   19   20 ar
    37   20   21 1
    38   21   39 1
    39   22   40 1
    40   22   41 1
    41   22   42 1
    42   23   27 1
    43   23   24 2
    44   24   25 1
    45   24   43 1
    46   25   26 2
    47   25   44 1
    48   26   27 1
    49   26   45 1
@<TRIPOS>MOLECULE
ZINC02709621
   51    54     0     0     0
SMALL
USER_CHARGES
N-[3-[(3-bromophenyl)-(2-pyridylamino)methyl]-4,5-dimethyl-2-thienyl]furan-2-carboxamide
@<TRIPOS>ATOM
      1 C1          2.2253   -1.2320   -1.8130 C.3       1 <0>        -0.1047
      2 C2          2.7567    0.0890   -2.3064 C.2       1 <0>        -0.1056
      3 C3          3.1362    0.2371   -3.5984 C.2       1 <0>        -0.1642
      4 S1          3.6725    1.9394   -3.6368 S.3       1 <0>         0.1967
      5 C4          3.3486    2.3453   -1.9287 C.2       1 <0>         0.0612
      6 C5          2.8582    1.1683   -1.4480 C.2       1 <0>        -0.1740
      7 C6          2.4400    1.0434   -0.0056 C.3       1 <0>         0.2461
      8 H1          2.3600   -0.0108    0.2595 H         1 <0>         0.1264
      9 C7          1.1044    1.7134    0.1900 C.ar      1 <0>        -0.1082
     10 C8          1.0463    3.0439    0.5616 C.ar      1 <0>        -0.1027
     11 C9         -0.1784    3.6588    0.7415 C.ar      1 <0>        -0.0999
     12 C10        -1.3459    2.9439    0.5492 C.ar      1 <0>        -0.0772
     13 C11        -1.2883    1.6143    0.1728 C.ar      1 <0>        -0.0798
     14 C12        -0.0622    0.9977   -0.0017 C.ar      1 <0>        -0.0717
     15 Br1        -2.8850    0.6375   -0.0962 Br        1 <0>        -0.0250
     16 N1          3.4395    1.6877    0.8502 N.pl3     1 <0>        -0.7060
     17 C13         3.5069    1.3685    2.2014 C.ar      1 <0>         0.4551
     18 C14         2.6223    0.4364    2.7347 C.ar      1 <0>        -0.1938
     19 C15         2.7006    0.1284    4.0807 C.ar      1 <0>         0.0501
     20 C16         3.6646    0.7651    4.8514 C.ar      1 <0>        -0.1662
     21 C17         4.5100    1.6797    4.2565 C.ar      1 <0>         0.1546
     22 N2          3.5467    3.5546   -1.2592 N.am      1 <0>        -0.6303
     23 C18         4.1236    4.5918   -1.8979 C.2       1 <0>         0.6017
     24 O1          4.4719    4.4744   -3.0583 O.2       1 <0>        -0.4653
     25 C19         4.3316    5.8615   -1.1948 C.2       1 <0>        -0.1067
     26 C20         4.9011    6.9859   -1.7205 C.2       1 <0>        -0.0844
     27 C21         4.8975    7.9534   -0.7035 C.2       1 <0>        -0.2172
     28 C22         4.3332    7.3845    0.3846 C.2       1 <0>         0.0097
     29 O2          3.9886    6.1257    0.0829 O.3       1 <0>        -0.1788
     30 C23         3.1166   -0.7758   -4.7140 C.3       1 <0>        -0.0727
     31 H2          1.1438   -1.2610   -1.9454 H         1 <0>         0.0764
     32 H3          2.6827   -2.0425   -2.3806 H         1 <0>         0.0782
     33 H4          2.4653   -1.3483   -0.7561 H         1 <0>         0.0606
     34 H5          1.9582    3.6028    0.7116 H         1 <0>         0.1082
     35 H6         -0.2233    4.6980    1.0322 H         1 <0>         0.1378
     36 H7         -2.3028    3.4245    0.6895 H         1 <0>         0.1420
     37 H8         -0.0167   -0.0415   -0.2920 H         1 <0>         0.1409
     38 H9          4.0541    2.3369    0.4739 H         1 <0>         0.4114
     39 H10         1.8847   -0.0403    2.1061 H         1 <0>         0.1791
     40 H11         2.0270   -0.5909    4.5226 H         1 <0>         0.1764
     41 H12         3.7517    0.5471    5.9055 H         1 <0>         0.1851
     42 H13         5.2611    2.1772    4.8522 H         1 <0>         0.1968
     43 H14         3.2691    3.6481   -0.3345 H         1 <0>         0.4081
     44 H15         5.2807    7.1073   -2.7243 H         1 <0>         0.1689
     45 H16         5.2750    8.9626   -0.7767 H         1 <0>         0.1672
     46 H17         4.1810    7.8667    1.3389 H         1 <0>         0.2188
     47 H18         3.4986   -0.3185   -5.6267 H         1 <0>         0.0764
     48 H19         3.7430   -1.6259   -4.4439 H         1 <0>         0.0848
     49 H20         2.0940   -1.1156   -4.8784 H         1 <0>         0.0858
     50 N3          4.4658    2.0025    2.9362 N.ar      1 <0>        -0.5368
     51 H21         5.1136    2.6808    2.5185 H         1 <0>         0.4666
@<TRIPOS>BOND
     1    1    2 1
     2    1   31 1
     3    1   32 1
     4    1   33 1
     5    2    6 1
     6    2    3 2
     7    3    4 1
     8    3   30 1
     9    4    5 1
    10    5    6 2
    11    5   22 1
    12    6    7 1
    13    7    8 1
    14    7    9 1
    15    7   16 1
    16    9   14 ar
    17    9   10 ar
    18   10   11 ar
    19   10   34 1
    20   11   12 ar
    21   11   35 1
    22   12   13 ar
    23   12   36 1
    24   13   14 ar
    25   13   15 1
    26   14   37 1
    27   16   17 1
    28   16   38 1
    29   17   18 ar
    30   17   50 ar
    31   18   19 ar
    32   18   39 1
    33   19   20 ar
    34   19   40 1
    35   20   21 ar
    36   20   41 1
    37   21   42 1
    38   21   50 ar
    39   22   23 am
    40   22   43 1
    41   23   24 2
    42   23   25 1
    43   25   29 1
    44   25   26 2
    45   26   27 1
    46   26   44 1
    47   27   28 2
    48   27   45 1
    49   28   29 1
    50   28   46 1
    51   30   47 1
    52   30   48 1
    53   30   49 1
    54   50   51 1
@<TRIPOS>MOLECULE
ZINC26197022
   59    62     0     0     0
SMALL
USER_CHARGES
N-[4-[[6-methyl-5-[(2S)-2-methylbutyl]-4-oxo-3H-thieno[5,4-d]pyrimidin-2-yl]sulfanylmethyl]-2-oxo-chromen-7-yl]acetamide
@<TRIPOS>ATOM
      1 C1          2.0289  -14.3937    7.4111 C.3       1 <0>        -0.1556
      2 C2          1.8554  -12.9037    7.7121 C.3       1 <0>        -0.1193
      3 C3          1.0043  -12.2578    6.6170 C.3       1 <0>        -0.0769
      4 H1          0.0519  -12.8004    6.5250 H         1 <0>         0.0654
      5 C4          1.7558  -12.3169    5.2856 C.3       1 <0>        -0.1481
      6 C5          0.7264  -10.7981    6.9813 C.3       1 <0>        -0.0720
      7 C6         -0.2120  -10.1970    5.9668 C.2       1 <0>        -0.0566
      8 C7         -1.5391  -10.2589    6.1501 C.2       1 <0>        -0.1459
      9 S1         -2.1946   -9.4300    4.7144 S.3       1 <0>         0.1454
     10 C8         -0.6664   -9.0239    3.9090 C.2       1 <0>         0.0928
     11 C9          0.3106   -9.5442    4.7788 C.2       1 <0>        -0.2201
     12 C10         1.6692   -9.3568    4.3720 C.2       1 <0>         0.5609
     13 O1          2.5834   -9.7739    5.0622 O.2       1 <0>        -0.4968
     14 N1          1.9248   -8.7187    3.2152 N.am      1 <0>        -0.6321
     15 H2          2.9640   -8.5746    2.8845 H         1 <0>         0.4515
     16 C11         0.9144   -8.2400    2.4324 C.2       1 <0>         0.3633
     17 N2         -0.3458   -8.3989    2.7828 N.2       1 <0>        -0.4932
     18 S2          1.3002   -7.4047    0.9297 S.3       1 <0>         0.0494
     19 C12        -0.3696   -7.0236    0.3444 C.3       1 <0>        -0.1116
     20 C13        -0.2861   -6.2866   -0.9675 C.2       1 <0>         0.1451
     21 C14        -0.2785   -6.9605   -2.1470 C.2       1 <0>        -0.2548
     22 C15        -0.2001   -6.2481   -3.3613 C.2       1 <0>         0.5325
     23 O2         -0.1941   -6.8647   -4.4117 O.3       1 <0>        -0.3409
     24 O3         -0.1322   -4.9079   -3.3895 O.3       1 <0>        -0.2352
     25 C16        -0.1355   -4.1779   -2.2534 C.2       1 <0>         0.1664
     26 C17        -0.2114   -4.8247   -1.0054 C.2       1 <0>        -0.1769
     27 C18        -0.2155   -4.0726    0.1749 C.2       1 <0>        -0.0159
     28 C19        -0.1402   -2.7115    0.1123 C.2       1 <0>        -0.1387
     29 C20        -0.0706   -2.0642   -1.1210 C.2       1 <0>         0.2499
     30 C21        -0.0654   -2.7944   -2.3002 C.2       1 <0>        -0.1402
     31 N3          0.0001   -0.6716   -1.1688 N.am      1 <0>        -0.6884
     32 C22        -0.6054   -0.0001   -2.1683 C.2       1 <0>         0.5198
     33 O4         -1.1410   -0.6086   -3.0704 O.2       1 <0>        -0.5174
     34 C23        -0.6170    1.5069   -2.1648 C.3       1 <0>        -0.1794
     35 C24        -2.2954  -10.8803    7.2960 C.3       1 <0>        -0.0740
     36 H3          2.6408  -14.8580    8.1985 H         1 <0>         0.0552
     37 H4          2.5285  -14.5156    6.4387 H         1 <0>         0.0558
     38 H5          1.0421  -14.8787    7.3797 H         1 <0>         0.0530
     39 H6          1.3558  -12.7818    8.6845 H         1 <0>         0.0621
     40 H7          2.8422  -12.4186    7.7435 H         1 <0>         0.0642
     41 H8          1.1439  -11.8525    4.4983 H         1 <0>         0.0377
     42 H9          1.9556  -13.3664    5.0236 H         1 <0>         0.0494
     43 H10         2.7082  -11.7743    5.3778 H         1 <0>         0.0755
     44 H11         0.2666  -10.7505    7.9795 H         1 <0>         0.0747
     45 H12         1.6713  -10.2350    6.9856 H         1 <0>         0.0907
     46 H13        -0.9314   -7.9589    0.2044 H         1 <0>         0.1496
     47 H14        -0.8836   -6.3947    1.0862 H         1 <0>         0.1447
     48 H15        -0.3320   -8.0392   -2.1546 H         1 <0>         0.2010
     49 H16        -0.2737   -4.5683    1.1327 H         1 <0>         0.1606
     50 H17        -0.1390   -2.1317    1.0235 H         1 <0>         0.1602
     51 H18        -0.0072   -2.2867   -3.2516 H         1 <0>         0.1739
     52 H19         0.5500   -0.1218   -0.3908 H         1 <0>         0.4571
     53 H20        -1.1532    1.8715   -3.0534 H         1 <0>         0.1057
     54 H21         0.4171    1.8816   -2.1811 H         1 <0>         0.1017
     55 H22        -1.1234    1.8676   -1.2573 H         1 <0>         0.1018
     56 H23        -3.3760  -10.7549    7.1330 H         1 <0>         0.0780
     57 H24        -2.0068  -10.3873    8.2360 H         1 <0>         0.0880
     58 H25        -2.0554  -11.9522    7.3553 H         1 <0>         0.0877
     59 H26        -0.1334   -6.3230   -5.3671 H         1 <0>         0.5196
@<TRIPOS>BOND
     1    1    2 1
     2    1   36 1
     3    1   37 1
     4    1   38 1
     5    2    3 1
     6    2   39 1
     7    2   40 1
     8    3    4 1
     9    3    5 1
    10    3    6 1
    11    5   41 1
    12    5   42 1
    13    5   43 1
    14    6    7 1
    15    6   44 1
    16    6   45 1
    17    7   11 1
    18    7    8 2
    19    8    9 1
    20    8   35 1
    21    9   10 1
    22   10   17 1
    23   10   11 2
    24   11   12 1
    25   12   13 2
    26   12   14 am
    27   14   15 1
    28   14   16 1
    29   16   17 2
    30   16   18 1
    31   18   19 1
    32   19   20 1
    33   19   46 1
    34   19   47 1
    35   20   26 2
    36   20   21 1
    37   21   22 2
    38   21   48 1
    39   22   23 1
    40   22   24 1
    41   23   59 1
    42   24   25 1
    43   25   30 2
    44   25   26 1
    45   26   27 1
    46   27   28 2
    47   27   49 1
    48   28   29 1
    49   28   50 1
    50   29   30 1
    51   29   31 2
    52   30   51 1
    53   31   32 am
    54   31   52 1
    55   32   33 2
    56   32   34 1
    57   34   53 1
    58   34   54 1
    59   34   55 1
    60   35   56 1
    61   35   57 1
    62   35   58 1
@<TRIPOS>MOLECULE
ZINC03011934
   49    52     0     0     0
SMALL
USER_CHARGES

@<TRIPOS>ATOM
      1 C1          0.5821    1.1909   -0.4919 C.3       1 <0>         0.0247
      2 O1         -0.0168   -0.0041    0.0134 O.3       1 <0>        -0.3042
      3 C2          0.6119   -0.6188    1.0509 C.ar      1 <0>         0.1255
      4 C3          1.7773   -0.0781    1.5737 C.ar      1 <0>        -0.1774
      5 C4          2.4161   -0.7013    2.6275 C.ar      1 <0>        -0.0954
      6 C5          1.8921   -1.8702    3.1640 C.ar      1 <0>         0.1216
      7 C6          0.7256   -2.4115    2.6408 C.ar      1 <0>        -0.0741
      8 C7          0.0840   -1.7839    1.5899 C.ar      1 <0>        -0.0495
      9 Cl1        -1.3786   -2.4562    0.9397 Cl        1 <0>        -0.0483
     10 N1          2.5403   -2.5028    4.2320 N.am      1 <0>        -0.6564
     11 C8          2.5129   -3.8462    4.3365 C.2       1 <0>         0.6038
     12 O2          2.0089   -4.5144    3.4546 O.2       1 <0>        -0.4985
     13 C9          3.0951   -4.5067    5.5224 C.2       1 <0>         0.0661
     14 C10         3.1398   -5.8997    5.7575 C.2       1 <0>        -0.2606
     15 C11         3.7497   -6.0929    6.9435 C.2       1 <0>         0.3675
     16 N2          4.0834   -4.8707    7.4545 N.pl3     1 <0>        -0.3936
     17 N3          3.6699   -3.8982    6.5450 N.2       1 <0>        -0.2505
     18 C12         4.7612   -4.6847    8.7407 C.3       1 <0>         0.1293
     19 H1          5.8225   -4.5030    8.5712 H         1 <0>         0.1362
     20 C13         4.5856   -5.9539    9.5821 C.3       1 <0>        -0.1519
     21 C14         4.9644   -7.1862    8.7532 C.3       1 <0>         0.2024
     22 H2          5.9854   -7.0808    8.3863 H         1 <0>         0.0922
     23 N4          4.0349   -7.2875    7.6108 N.pl3     1 <0>        -0.7251
     24 C15         4.8589   -8.4230    9.6078 C.ar      1 <0>        -0.1006
     25 C16         3.6251   -9.0047    9.8320 C.ar      1 <0>        -0.0908
     26 C17         3.5276  -10.1390   10.6157 C.ar      1 <0>        -0.1066
     27 C18         4.6653  -10.6922   11.1759 C.ar      1 <0>        -0.0258
     28 C19         5.8999  -10.1096   10.9512 C.ar      1 <0>        -0.1068
     29 C20         5.9967   -8.9785   10.1627 C.ar      1 <0>        -0.0873
     30 Cl2         4.5437  -12.1166   12.1608 Cl        1 <0>        -0.0607
     31 C21         4.1478   -3.4909    9.4753 C.3       1 <0>         0.4559
     32 F1          2.7870   -3.7287    9.6966 F         1 <0>        -0.1718
     33 F2          4.7961   -3.3153   10.7025 F         1 <0>        -0.1714
     34 F3          4.2993   -2.3373    8.6985 F         1 <0>        -0.1602
     35 H3          1.5883    0.9704   -0.8484 H         1 <0>         0.0579
     36 H4         -0.0183    1.5782   -1.3151 H         1 <0>         0.1038
     37 H5          0.6330    1.9357    0.3023 H         1 <0>         0.0579
     38 H6          2.1854    0.8305    1.1562 H         1 <0>         0.1433
     39 H7          3.3235   -0.2798    3.0342 H         1 <0>         0.1375
     40 H8          0.3177   -3.3207    3.0572 H         1 <0>         0.1533
     41 H9          3.0090   -1.9741    4.8966 H         1 <0>         0.4204
     42 H10         2.7546   -6.6695    5.1053 H         1 <0>         0.1651
     43 H11         5.2278   -5.8974   10.4610 H         1 <0>         0.1230
     44 H12         3.5461   -6.0368    9.8996 H         1 <0>         0.1017
     45 H13         3.6449   -8.1332    7.3395 H         1 <0>         0.4272
     46 H14         2.7370   -8.5725    9.3949 H         1 <0>         0.1355
     47 H15         2.5636  -10.5932   10.7910 H         1 <0>         0.1384
     48 H16         6.7883  -10.5408   11.3885 H         1 <0>         0.1394
     49 H17         6.9609   -8.5264    9.9833 H         1 <0>         0.1378
@<TRIPOS>BOND
     1    1    2 1
     2    1   35 1
     3    1   36 1
     4    1   37 1
     5    2    3 1
     6    3    8 ar
     7    3    4 ar
     8    4    5 ar
     9    4   38 1
    10    5    6 ar
    11    5   39 1
    12    6    7 ar
    13    6   10 1
    14    7    8 ar
    15    7   40 1
    16    8    9 1
    17   10   11 am
    18   10   41 1
    19   11   12 2
    20   11   13 1
    21   13   17 2
    22   13   14 1
    23   14   15 2
    24   14   42 1
    25   15   23 1
    26   15   16 1
    27   16   17 1
    28   16   18 1
    29   18   19 1
    30   18   20 1
    31   18   31 1
    32   20   21 1
    33   20   43 1
    34   20   44 1
    35   21   22 1
    36   21   23 1
    37   21   24 1
    38   23   45 1
    39   24   29 ar
    40   24   25 ar
    41   25   26 ar
    42   25   46 1
    43   26   27 ar
    44   26   47 1
    45   27   28 ar
    46   27   30 1
    47   28   29 ar
    48   28   48 1
    49   29   49 1
    50   31   32 1
    51   31   33 1
    52   31   34 1
@<TRIPOS>MOLECULE
ZINC43741012
   74    79     0     0     0
SMALL
USER_CHARGES

@<TRIPOS>ATOM
      1 C1         -0.0214    1.5306   -0.0013 C.3       1 <0>        -0.1530
      2 C2         -0.0028    0.0009   -0.0239 C.3       1 <0>        -0.0129
      3 C3          0.7505   -0.4476   -1.2794 C.3       1 <0>        -0.1007
      4 C4          2.2009    0.0326   -1.1987 C.3       1 <0>        -0.1236
      5 C5          2.8930   -0.6181   -0.0003 C.3       1 <0>         0.2621
      6 C6          2.2144   -0.1715    1.2970 C.3       1 <0>        -0.1031
      7 C7          0.7293   -0.4760    1.1951 C.2       1 <0>        -0.0916
      8 C8          0.1670   -1.1326    2.1673 C.2       1 <0>        -0.1557
      9 C9         -1.2892   -1.4961    2.1747 C.3       1 <0>        -0.0814
     10 C10        -2.0651   -0.4882    1.3189 C.3       1 <0>        -0.0700
     11 H1         -2.0103    0.5053    1.7640 H         1 <0>         0.0842
     12 C11        -1.4395   -0.4898   -0.0928 C.3       1 <0>        -0.0665
     13 H2         -1.4355   -1.5105   -0.4753 H         1 <0>         0.0700
     14 C12        -2.2332    0.3737   -1.0690 C.3       1 <0>        -0.1259
     15 C13        -3.7146   -0.0326   -1.1144 C.3       1 <0>        -0.0938
     16 C14        -4.2523    0.0847    0.2991 C.3       1 <0>        -0.0460
     17 C15        -3.5121   -0.9318    1.2009 C.3       1 <0>        -0.0770
     18 H3         -3.5704   -1.9088    0.7213 H         1 <0>         0.0821
     19 C16        -4.3236   -0.9108    2.5010 C.3       1 <0>        -0.1128
     20 C17        -5.7891   -0.8223    1.9947 C.3       1 <0>        -0.1562
     21 C18        -5.7212   -0.2744    0.4990 C.3       1 <0>         0.1236
     22 C19        -6.5885    0.9843    0.4321 C.3       1 <0>         0.0108
     23 N1         -7.9773    0.6376    0.7440 N.pl3     1 <0>        -0.5258
     24 C20        -8.5392    1.1121    1.8090 C.2       1 <0>         0.3669
     25 C21        -9.9674    0.8544    2.0659 C.ar      1 <0>        -0.1745
     26 C22       -10.6063    1.4594    3.1514 C.ar      1 <0>        -0.0110
     27 C23       -11.9430    1.2142    3.3866 C.ar      1 <0>        -0.0409
     28 C24       -12.6563    0.3697    2.5505 C.ar      1 <0>        -0.0181
     29 C25       -12.0360   -0.2347    1.4737 C.ar      1 <0>        -0.0587
     30 C26       -10.6933    0.0059    1.2196 C.ar      1 <0>         0.1685
     31 O1        -10.0842   -0.5828    0.1589 O.3       1 <0>        -0.4797
     32 Cl1       -12.9394   -1.2910    0.4336 Cl        1 <0>         0.0024
     33 Cl2       -12.7353    1.9661    4.7359 Cl        1 <0>        -0.0047
     34 O2         -6.1392   -1.2181   -0.4892 O.3       1 <0>        -0.5186
     35 C27        -3.9830    1.4897    0.8416 C.3       1 <0>        -0.1671
     36 O3          4.2748   -0.2241    0.0244 O.3       1 <0>        -0.3722
     37 C28         4.9853   -1.3942    0.4960 C.3       1 <0>         0.0149
     38 C29         4.1727   -2.5408   -0.1559 C.3       1 <0>         0.0184
     39 O4          2.8192   -2.0444   -0.1165 O.3       1 <0>        -0.3696
     40 H4          1.0017    1.9065   -0.0075 H         1 <0>         0.0599
     41 H5         -0.5497    1.9005   -0.8800 H         1 <0>         0.0654
     42 H6         -0.5295    1.8745    0.8996 H         1 <0>         0.0543
     43 H7          0.7307   -1.5354   -1.3464 H         1 <0>         0.0738
     44 H8          0.2743   -0.0198   -2.1616 H         1 <0>         0.0715
     45 H9          2.7255   -0.2424   -2.1137 H         1 <0>         0.0750
     46 H10         2.2183    1.1163   -1.0831 H         1 <0>         0.0833
     47 H11         2.6425   -0.7143    2.1398 H         1 <0>         0.0752
     48 H12         2.3598    0.8998    1.4361 H         1 <0>         0.0900
     49 H13         0.7763   -1.4303    3.0079 H         1 <0>         0.1045
     50 H14        -1.4167   -2.4973    1.7633 H         1 <0>         0.0736
     51 H15        -1.6655   -1.4712    3.1974 H         1 <0>         0.0696
     52 H16        -2.1602    1.4168   -0.7612 H         1 <0>         0.0757
     53 H17        -1.8052    0.2681   -2.0659 H         1 <0>         0.0686
     54 H18        -4.2632    0.6365   -1.7774 H         1 <0>         0.0645
     55 H19        -3.8073   -1.0611   -1.4631 H         1 <0>         0.0756
     56 H20        -4.1664   -1.8281    3.0686 H         1 <0>         0.0799
     57 H21        -4.0692   -0.0367    3.1005 H         1 <0>         0.0778
     58 H22        -6.2284   -1.8186    1.9441 H         1 <0>         0.0767
     59 H23        -6.3764   -0.1872    2.6581 H         1 <0>         0.0689
     60 H24        -6.2252    1.7147    1.1550 H         1 <0>         0.1384
     61 H25        -6.5364    1.4085   -0.5706 H         1 <0>         0.1395
     62 H26        -7.9615    1.6970    2.5095 H         1 <0>         0.2160
     63 H27       -10.0540    2.1178    3.8056 H         1 <0>         0.1733
     64 H28       -13.7026    0.1827    2.7418 H         1 <0>         0.1724
     65 H29        -9.6919   -1.4438    0.3586 H         1 <0>         0.4150
     66 H30        -7.0658   -1.4840   -0.4121 H         1 <0>         0.3655
     67 H31        -4.4661    2.2260    0.1993 H         1 <0>         0.0588
     68 H32        -4.3825    1.5716    1.8525 H         1 <0>         0.0603
     69 H33        -2.9086    1.6725    0.8596 H         1 <0>         0.0897
     70 H34         6.0155   -1.3949    0.1400 H         1 <0>         0.1111
     71 H35         4.9498   -1.4602    1.5834 H         1 <0>         0.0760
     72 H36         4.4935   -2.7037   -1.1848 H         1 <0>         0.0773
     73 H37         4.2640   -3.4573    0.4269 H         1 <0>         0.1007
     74 H38        -8.4757    0.0523    0.1524 H         1 <0>         0.4295
@<TRIPOS>BOND
     1    1    2 1
     2    1   40 1
     3    1   41 1
     4    1   42 1
     5    2    7 1
     6    2   12 1
     7    2    3 1
     8    3    4 1
     9    3   43 1
    10    3   44 1
    11    4    5 1
    12    4   45 1
    13    4   46 1
    14    5   39 1
    15    5    6 1
    16    5   36 1
    17    6    7 1
    18    6   47 1
    19    6   48 1
    20    7    8 2
    21    8    9 1
    22    8   49 1
    23    9   10 1
    24    9   50 1
    25    9   51 1
    26   10   11 1
    27   10   17 1
    28   10   12 1
    29   12   13 1
    30   12   14 1
    31   14   15 1
    32   14   52 1
    33   14   53 1
    34   15   16 1
    35   15   54 1
    36   15   55 1
    37   16   21 1
    38   16   17 1
    39   16   35 1
    40   17   18 1
    41   17   19 1
    42   19   20 1
    43   19   56 1
    44   19   57 1
    45   20   21 1
    46   20   58 1
    47   20   59 1
    48   21   22 1
    49   21   34 1
    50   22   23 1
    51   22   60 1
    52   22   61 1
    53   23   24 2
    54   23   74 1
    55   24   25 1
    56   24   62 1
    57   25   30 ar
    58   25   26 ar
    59   26   27 ar
    60   26   63 1
    61   27   28 ar
    62   27   33 1
    63   28   29 ar
    64   28   64 1
    65   29   30 ar
    66   29   32 1
    67   30   31 1
    68   31   65 1
    69   34   66 1
    70   35   67 1
    71   35   68 1
    72   35   69 1
    73   36   37 1
    74   37   38 1
    75   37   70 1
    76   37   71 1
    77   38   39 1
    78   38   72 1
    79   38   73 1
@<TRIPOS>MOLECULE
ZINC63547063
   57    61     0     0     0
SMALL
USER_CHARGES

@<TRIPOS>ATOM
      1 C1         -0.0184    1.5028    0.0103 C.3       1 <0>        -0.1227
      2 C2          0.0021   -0.0041    0.0020 C.ar      1 <0>        -0.0611
      3 C3          0.0057   -0.6865   -1.2013 C.ar      1 <0>        -0.1323
      4 C4          0.0244   -2.0663   -1.2151 C.ar      1 <0>        -0.0669
      5 C5          0.0396   -2.7724   -0.0132 C.ar      1 <0>        -0.0716
      6 C6          0.0359   -2.0794    1.1963 C.ar      1 <0>        -0.0812
      7 C7          0.0229   -0.6994    1.1977 C.ar      1 <0>        -0.1244
      8 C8          0.0592   -4.2552   -0.0214 C.2       1 <0>         0.2782
      9 N1          0.0673   -4.8833   -1.1705 N.2       1 <0>        -0.5343
     10 C9          0.0828   -6.3481   -1.2057 C.3       1 <0>         0.3668
     11 H1          1.0984   -6.7322   -1.3009 H         1 <0>         0.0964
     12 C10        -0.8121   -6.8756   -2.3030 C.2       1 <0>        -0.3496
     13 H2         -1.9408   -8.4120    0.2240 H         1 <0>         0.4415
     14 C11        -1.6975   -7.7094   -1.7176 C.2       1 <0>         0.2461
     15 N2         -1.5023   -7.7820   -0.3690 N.pl3     1 <0>        -0.5051
     16 N3         -0.5619   -6.8205    0.0394 N.pl3     1 <0>        -0.4547
     17 C12        -0.2673   -6.2901    1.2700 C.2       1 <0>         0.1291
     18 C13         0.0750   -4.9723    1.2570 C.2       1 <0>        -0.2076
     19 C14        -0.3139   -7.1040    2.5375 C.3       1 <0>         0.3192
     20 F1          0.0340   -6.2947    3.6244 F         1 <0>        -0.1770
     21 F2         -1.6072   -7.6040    2.7234 F         1 <0>        -0.1926
     22 C15        -0.7370   -6.5564   -3.6788 C.2       1 <0>         0.6178
     23 O1         -1.5243   -7.0543   -4.4633 O.2       1 <0>        -0.5599
     24 N4          0.2058   -5.7011   -4.1217 N.am      1 <0>        -0.7308
     25 C16         0.2836   -5.3705   -5.5467 C.3       1 <0>         0.1310
     26 C17         1.4316   -4.3864   -5.7800 C.3       1 <0>        -0.1094
     27 C18         1.5117   -4.0462   -7.2459 C.2       1 <0>         0.0871
     28 C19         0.9574   -2.9788   -7.8644 C.ar      1 <0>        -0.1659
     29 C20         0.1447   -1.8583   -7.3761 C.ar      1 <0>        -0.0026
     30 C21        -0.2755   -0.9199   -8.2560 C.ar      1 <0>        -0.0774
     31 C22         0.0456   -0.9918   -9.6197 C.ar      1 <0>         0.0534
     32 C23         0.7877   -1.9907  -10.1421 C.ar      1 <0>        -0.1893
     33 C24         1.2825   -3.0310   -9.3078 C.ar      1 <0>         0.3293
     34 N5          2.0095   -4.0895   -9.5712 N.pl3     1 <0>        -0.5788
     35 C25         2.2335   -4.8259   -8.3222 C.3       1 <0>         0.0587
     36 Cl1        -1.2369    0.4069   -7.6824 Cl        1 <0>        -0.0147
     37 H3          1.0042    1.8801    0.0026 H         1 <0>         0.0756
     38 H4         -0.5455    1.8639   -0.8728 H         1 <0>         0.0686
     39 H5         -0.5286    1.8543    0.9071 H         1 <0>         0.0711
     40 H6         -0.0065   -0.1383   -2.1318 H         1 <0>         0.1242
     41 H7          0.0268   -2.5980   -2.1551 H         1 <0>         0.1308
     42 H8          0.0477   -2.6213    2.1304 H         1 <0>         0.1303
     43 H9          0.0244   -0.1614    2.1341 H         1 <0>         0.1298
     44 H10        -2.4650   -8.2513   -2.2502 H         1 <0>         0.1982
     45 H11         0.3488   -4.4641    2.1698 H         1 <0>         0.1616
     46 H12         0.3891   -7.9336    2.4625 H         1 <0>         0.1361
     47 H13         0.8328   -5.3045   -3.4968 H         1 <0>         0.4091
     48 H14         0.4617   -6.2794   -6.1214 H         1 <0>         0.0761
     49 H15        -0.6546   -4.9166   -5.8662 H         1 <0>         0.0765
     50 H16         1.2535   -3.4775   -5.2053 H         1 <0>         0.1181
     51 H17         2.3698   -4.8402   -5.4606 H         1 <0>         0.1208
     52 H18        -0.1145   -1.7841   -6.3303 H         1 <0>         0.1708
     53 H19        -0.3163   -0.2163  -10.2786 H         1 <0>         0.1701
     54 H20         1.0069   -2.0003  -11.1996 H         1 <0>         0.1704
     55 H21         3.2992   -4.8761   -8.0989 H         1 <0>         0.1796
     56 H22         1.8179   -5.8304   -8.4012 H         1 <0>         0.1795
     57 H23         2.3464   -4.3417  -10.4452 H         1 <0>         0.4579
@<TRIPOS>BOND
     1    1    2 1
     2    1   37 1
     3    1   38 1
     4    1   39 1
     5    2    7 ar
     6    2    3 ar
     7    3    4 ar
     8    3   40 1
     9    4    5 ar
    10    4   41 1
    11    5    6 ar
    12    5    8 1
    13    6    7 ar
    14    6   42 1
    15    7   43 1
    16    8   18 1
    17    8    9 2
    18    9   10 1
    19   10   11 1
    20   10   16 1
    21   10   12 1
    22   12   22 1
    23   12   14 2
    24   13   15 1
    25   14   44 1
    26   14   15 1
    27   15   16 1
    28   16   17 1
    29   17   18 2
    30   17   19 1
    31   18   45 1
    32   19   20 1
    33   19   21 1
    34   19   46 1
    35   22   23 2
    36   22   24 am
    37   24   25 1
    38   24   47 1
    39   25   26 1
    40   25   48 1
    41   25   49 1
    42   26   27 1
    43   26   50 1
    44   26   51 1
    45   27   35 1
    46   27   28 2
    47   28   33 ar
    48   28   29 ar
    49   29   30 ar
    50   29   52 1
    51   30   31 ar
    52   30   36 1
    53   31   32 ar
    54   31   53 1
    55   32   33 ar
    56   32   54 1
    57   33   34 2
    58   34   35 1
    59   34   57 1
    60   35   55 1
    61   35   56 1
@<TRIPOS>MOLECULE
ZINC08837796
   64    68     0     0     0
SMALL
USER_CHARGES
[4-(hydroxy-methyl-BLAHyl)phenyl] 3,4,5-trimethoxybenzoate
@<TRIPOS>ATOM
      1 C1          0.5145   -9.7496    8.0620 C.3       1 <0>        -0.0408
      2 C2          2.1340   -9.2254    6.3394 C.3       1 <0>        -0.0010
      3 C3          2.5967   -9.6294    4.9368 C.3       1 <0>        -0.0863
      4 C4          1.4779   -9.3025    3.9537 C.2       1 <0>        -0.0031
      5 C5          0.2186   -9.0950    4.4081 C.2       1 <0>        -0.3202
      6 S1         -0.7385   -8.7563    2.9556 S.3       1 <0>         0.2354
      7 C6          0.5008   -8.8916    1.7831 C.2       1 <0>         0.1573
      8 C7          1.6559   -9.1880    2.5193 C.2       1 <0>        -0.2557
      9 C8          2.9187   -9.3672    1.7574 C.2       1 <0>         0.4588
     10 N1          2.9210   -9.0342    0.4964 N.2       1 <0>        -0.6238
     11 C9          1.8026   -8.4106   -0.2000 C.3       1 <0>         0.3939
     12 H1          1.8038   -8.7379   -1.2397 H         1 <0>         0.1331
     13 N2          0.5119   -8.7702    0.4162 N.pl3     1 <0>        -0.6876
     14 C10         1.9686   -6.9135   -0.1557 C.ar      1 <0>        -0.1241
     15 C11         3.2346   -6.3611   -0.0920 C.ar      1 <0>        -0.0712
     16 C12         3.3895   -4.9890   -0.0517 C.ar      1 <0>        -0.1168
     17 C13         2.2735   -4.1650   -0.0753 C.ar      1 <0>         0.0944
     18 C14         1.0041   -4.7220   -0.1334 C.ar      1 <0>        -0.1163
     19 C15         0.8548   -6.0945   -0.1793 C.ar      1 <0>        -0.0890
     20 O1          2.4232   -2.8148   -0.0358 O.3       1 <0>        -0.2901
     21 C16         2.8037   -2.2078   -1.1773 C.2       1 <0>         0.5121
     22 O2          3.0827   -2.8729   -2.1553 O.2       1 <0>        -0.4760
     23 C17         2.8814   -0.7365   -1.2395 C.ar      1 <0>        -0.0568
     24 C18         3.2758   -0.1056   -2.4227 C.ar      1 <0>        -0.1661
     25 C19         3.3474    1.2735   -2.4783 C.ar      1 <0>         0.1416
     26 C20         3.0269    2.0343   -1.3570 C.ar      1 <0>         0.0725
     27 C21         2.6337    1.4085   -0.1768 C.ar      1 <0>         0.1383
     28 C22         2.5604    0.0297   -0.1155 C.ar      1 <0>        -0.1770
     29 O3          2.3214    2.1547    0.9165 O.3       1 <0>        -0.2961
     30 C23         1.9259    1.4472    2.0934 C.3       1 <0>         0.0216
     31 O4          3.0985    3.3901   -1.4143 O.3       1 <0>        -0.3112
     32 C24         1.9183    4.0854   -1.8214 C.3       1 <0>         0.0355
     33 O5          3.7365    1.8878   -3.6276 O.3       1 <0>        -0.2951
     34 C25         4.0562    1.0459   -4.7371 C.3       1 <0>         0.0200
     35 O6          4.0299   -9.8592    2.3523 O.3       1 <0>        -0.4599
     36 C26        -0.2338   -9.1508    5.8329 C.3       1 <0>         0.1138
     37 H2          0.5099   -8.7089    8.3860 H         1 <0>         0.1248
     38 H3         -0.4646  -10.1918    8.2463 H         1 <0>         0.1247
     39 H4          1.2726  -10.3002    8.6189 H         1 <0>         0.1255
     40 H5          2.8566   -9.5798    7.0744 H         1 <0>         0.1372
     41 H6          2.0646   -8.1392    6.3982 H         1 <0>         0.1327
     42 H7          2.8068  -10.6986    4.9126 H         1 <0>         0.1092
     43 H8          3.4948   -9.0721    4.6704 H         1 <0>         0.1288
     44 H9         -0.2869   -8.9127   -0.1154 H         1 <0>         0.4253
     45 H10         4.1030   -7.0029   -0.0733 H         1 <0>         0.1401
     46 H11         4.3785   -4.5580   -0.0016 H         1 <0>         0.1332
     47 H12         0.1336   -4.0828   -0.1474 H         1 <0>         0.1359
     48 H13        -0.1330   -6.5284   -0.2291 H         1 <0>         0.1278
     49 H14         3.5248   -0.6953   -3.2926 H         1 <0>         0.1529
     50 H15         2.2550   -0.4552    0.7999 H         1 <0>         0.1508
     51 H16         1.0365    0.8547    1.8795 H         1 <0>         0.0588
     52 H17         2.7342    0.7880    2.4099 H         1 <0>         0.0600
     53 H18         1.7055    2.1594    2.8886 H         1 <0>         0.1077
     54 H19         1.6350    3.7644   -2.8238 H         1 <0>         0.0485
     55 H20         1.1082    3.8640   -1.1264 H         1 <0>         0.0479
     56 H21         2.1114    5.1581   -1.8244 H         1 <0>         0.0991
     57 H22         3.1834    0.4502   -5.0045 H         1 <0>         0.0604
     58 H23         4.3504    1.6613   -5.5873 H         1 <0>         0.1098
     59 H24         4.8786    0.3840   -4.4658 H         1 <0>         0.0617
     60 H25         4.7924   -9.9325    1.7621 H         1 <0>         0.4171
     61 H26        -1.1605   -9.7205    5.9022 H         1 <0>         0.1381
     62 H27        -0.3943   -8.1398    6.2074 H         1 <0>         0.1407
     63 N3          0.8195   -9.8395    6.6177 N.4       1 <0>        -0.3956
     64 H28         0.8479  -10.8285    6.3436 H         1 <0>         0.4328
@<TRIPOS>BOND
     1    1   37 1
     2    1   38 1
     3    1   39 1
     4    1   63 1
     5    2    3 1
     6    2   40 1
     7    2   41 1
     8    2   63 1
     9    3    4 1
    10    3   42 1
    11    3   43 1
    12    4    8 1
    13    4    5 2
    14    5    6 1
    15    5   36 1
    16    6    7 1
    17    7   13 1
    18    7    8 2
    19    8    9 1
    20    9   10 2
    21    9   35 1
    22   10   11 1
    23   11   12 1
    24   11   13 1
    25   11   14 1
    26   13   44 1
    27   14   19 ar
    28   14   15 ar
    29   15   16 ar
    30   15   45 1
    31   16   17 ar
    32   16   46 1
    33   17   18 ar
    34   17   20 1
    35   18   19 ar
    36   18   47 1
    37   19   48 1
    38   20   21 1
    39   21   22 2
    40   21   23 1
    41   23   28 ar
    42   23   24 ar
    43   24   25 ar
    44   24   49 1
    45   25   26 ar
    46   25   33 1
    47   26   27 ar
    48   26   31 1
    49   27   28 ar
    50   27   29 1
    51   28   50 1
    52   29   30 1
    53   30   51 1
    54   30   52 1
    55   30   53 1
    56   31   32 1
    57   32   54 1
    58   32   55 1
    59   32   56 1
    60   33   34 1
    61   34   57 1
    62   34   58 1
    63   34   59 1
    64   35   60 1
    65   36   61 1
    66   36   62 1
    67   36   63 1
    68   63   64 1
@<TRIPOS>MOLECULE
ZINC12763675
   58    60     0     0     0
SMALL
USER_CHARGES
2-[[2-[(2-bromophenyl)amino]-2-oxo-ethyl]-methyl-amino]-N-[2-(2,5-dimethylphenyl)-5-methyl-pyrazol-3-yl]acetamide
@<TRIPOS>ATOM
      1 C1          8.9844    4.9297   -2.0907 C.3       1 <0>        -0.1172
      2 C2          9.6841    3.8445   -1.3137 C.ar      1 <0>        -0.0694
      3 C3         10.8608    4.1242   -0.6429 C.ar      1 <0>        -0.1054
      4 C4         11.5056    3.1312    0.0711 C.ar      1 <0>        -0.0947
      5 C5         10.9760    1.8562    0.1164 C.ar      1 <0>        -0.0670
      6 C6          9.7951    1.5724   -0.5559 C.ar      1 <0>         0.1345
      7 C7          9.1525    2.5705   -1.2765 C.ar      1 <0>        -0.1371
      8 N1          9.2555    0.2796   -0.5123 N.pl3     1 <0>        -0.3296
      9 C8          7.9602   -0.0403   -0.2438 C.2       1 <0>         0.2843
     10 C9          7.8558   -1.3965   -0.2951 C.2       1 <0>        -0.2466
     11 C10         9.1158   -1.9122   -0.6116 C.2       1 <0>         0.0914
     12 N2          9.9528   -0.9141   -0.7381 N.2       1 <0>        -0.2555
     13 C11         9.4547   -3.3716   -0.7736 C.3       1 <0>        -0.0791
     14 N3          6.9302    0.8564    0.0382 N.am      1 <0>        -0.6227
     15 C12         5.7229    0.3968    0.4223 C.2       1 <0>         0.5071
     16 O1          5.5322   -0.7968    0.5227 O.2       1 <0>        -0.4894
     17 C13         4.6098    1.3659    0.7270 C.3       1 <0>        -0.0211
     18 C14         3.6147   -0.0827    2.3925 C.3       1 <0>        -0.0624
     19 C15         2.2386    1.5096    1.1952 C.3       1 <0>        -0.0256
     20 C16         0.9885    0.6836    1.3571 C.2       1 <0>         0.5031
     21 O2          1.0629   -0.5260    1.4052 O.2       1 <0>        -0.5014
     22 N4         -0.2127    1.2888    1.4428 N.am      1 <0>        -0.6421
     23 C17        -1.3815    0.5205    1.4916 C.ar      1 <0>         0.1483
     24 C18        -1.3518   -0.7579    2.0329 C.ar      1 <0>        -0.1171
     25 C19        -2.5079   -1.5116    2.0845 C.ar      1 <0>        -0.0827
     26 C20        -3.6925   -0.9990    1.5879 C.ar      1 <0>        -0.1115
     27 C21        -3.7251    0.2715    1.0434 C.ar      1 <0>        -0.0685
     28 C22        -2.5729    1.0330    0.9935 C.ar      1 <0>        -0.1145
     29 Br1        -2.6177    2.7701    0.2476 Br        1 <0>        -0.0348
     30 C23        11.6798    0.7743    0.8944 C.3       1 <0>        -0.1115
     31 H1          9.3538    4.9381   -3.1162 H         1 <0>         0.0787
     32 H2          7.9110    4.7407   -2.0927 H         1 <0>         0.0652
     33 H3          9.1825    5.8953   -1.6253 H         1 <0>         0.0752
     34 H4         11.2766    5.1204   -0.6765 H         1 <0>         0.1355
     35 H5         12.4245    3.3526    0.5936 H         1 <0>         0.1385
     36 H6          8.2360    2.3516   -1.8042 H         1 <0>         0.1233
     37 H7          6.9581   -1.9720   -0.1238 H         1 <0>         0.1769
     38 H8          9.7592   -3.7829    0.1888 H         1 <0>         0.0845
     39 H9          8.5796   -3.9095   -1.1382 H         1 <0>         0.0836
     40 H10        10.2705   -3.4780   -1.4887 H         1 <0>         0.0798
     41 H11         7.0827    1.8110   -0.0422 H         1 <0>         0.4207
     42 H12         4.3946    1.9625   -0.1595 H         1 <0>         0.1673
     43 H13         4.9130    2.0229    1.5422 H         1 <0>         0.1711
     44 H14         2.7342   -0.6817    2.6250 H         1 <0>         0.1407
     45 H15         4.4852   -0.7334    2.3093 H         1 <0>         0.1399
     46 H16         3.7795    0.6447    3.1874 H         1 <0>         0.1226
     47 H17         2.1697    2.0973    0.2798 H         1 <0>         0.1669
     48 H18         2.3452    2.1784    2.0492 H         1 <0>         0.1702
     49 H19        -0.2671    2.2569    1.4707 H         1 <0>         0.4216
     50 H20        -0.4263   -1.1609    2.4169 H         1 <0>         0.1558
     51 H21        -2.4860   -2.5044    2.5091 H         1 <0>         0.1404
     52 H22        -4.5940   -1.5925    1.6252 H         1 <0>         0.1416
     53 H23        -4.6517    0.6690    0.6565 H         1 <0>         0.1444
     54 H24        12.3244    0.2056    0.2242 H         1 <0>         0.0838
     55 H25        12.2830    1.2267    1.6816 H         1 <0>         0.0704
     56 H26        10.9411    0.1082    1.3401 H         1 <0>         0.0637
     57 N5          3.4009    0.6015    1.0999 N.4       1 <0>        -0.3700
     58 H27         3.2154   -0.1029    0.3763 H         1 <0>         0.4460
@<TRIPOS>BOND
     1    1    2 1
     2    1   31 1
     3    1   32 1
     4    1   33 1
     5    2    7 ar
     6    2    3 ar
     7    3    4 ar
     8    3   34 1
     9    4    5 ar
    10    4   35 1
    11    5    6 ar
    12    5   30 1
    13    6    7 ar
    14    6    8 1
    15    7   36 1
    16    8   12 1
    17    8    9 1
    18    9   10 2
    19    9   14 1
    20   10   11 1
    21   10   37 1
    22   11   12 2
    23   11   13 1
    24   13   38 1
    25   13   39 1
    26   13   40 1
    27   14   15 am
    28   14   41 1
    29   15   16 2
    30   15   17 1
    31   17   42 1
    32   17   43 1
    33   17   57 1
    34   18   44 1
    35   18   45 1
    36   18   46 1
    37   18   57 1
    38   19   20 1
    39   19   47 1
    40   19   48 1
    41   19   57 1
    42   20   21 2
    43   20   22 am
    44   22   23 1
    45   22   49 1
    46   23   28 ar
    47   23   24 ar
    48   24   25 ar
    49   24   50 1
    50   25   26 ar
    51   25   51 1
    52   26   27 ar
    53   26   52 1
    54   27   28 ar
    55   27   53 1
    56   28   29 1
    57   30   54 1
    58   30   55 1
    59   30   56 1
    60   57   58 1
@<TRIPOS>MOLECULE
ZINC35807683
   65    71     0     0     0
SMALL
USER_CHARGES

@<TRIPOS>ATOM
      1 C1         -0.0220    1.5453    0.0845 C.3       1 <0>        -0.1241
      2 C2         -0.0082    0.0386    0.0580 C.ar      1 <0>        -0.0917
      3 C3         -0.0179   -0.6284   -1.1499 C.ar      1 <0>        -0.0480
      4 C4         -0.0056   -2.0105   -1.1847 C.ar      1 <0>        -0.1224
      5 C5          0.0166   -2.7292   -0.0019 C.ar      1 <0>        -0.0162
      6 C6          0.0265   -2.0668    1.2047 C.ar      1 <0>        -0.2049
      7 C7          0.0199   -0.6769    1.2528 C.ar      1 <0>         0.1635
      8 N1          0.0401   -0.2397    2.5784 N.am      1 <0>        -0.6408
      9 C8          0.0676   -1.2636    3.4511 C.2       1 <0>         0.5270
     10 O1          0.0901   -1.1813    4.6609 O.2       1 <0>        -0.4314
     11 C9          0.0519   -2.5336    2.6371 C.3       1 <0>         0.1045
     12 C10        -1.1604   -3.3970    2.9591 C.3       1 <0>        -0.0239
     13 C11        -1.8077   -2.9987    4.2556 C.ar      1 <0>        -0.1926
     14 C12        -1.3551   -2.9110    5.5530 C.ar      1 <0>         0.0019
     15 C13        -2.2117   -2.5006    6.5592 C.ar      1 <0>        -0.1319
     16 C14        -3.5228   -2.1796    6.2582 C.ar      1 <0>        -0.0559
     17 C15        -3.9805   -2.2658    4.9598 C.ar      1 <0>        -0.1396
     18 C16        -3.1246   -2.6777    3.9408 C.ar      1 <0>         0.1586
     19 N2         -3.3474   -2.8405    2.5719 N.am      1 <0>        -0.6451
     20 C17        -2.2433   -3.2596    1.9239 C.2       1 <0>         0.5507
     21 O2         -2.1419   -3.4825    0.7360 O.2       1 <0>        -0.4618
     22 C18        -0.6295   -4.8372    3.0212 C.3       1 <0>        -0.1242
     23 H1         -0.7227   -5.3227    2.0497 H         1 <0>         0.1398
     24 C19         0.8516   -4.6583    3.3976 C.3       1 <0>         0.0298
     25 H2          0.9781   -4.7186    4.4785 H         1 <0>         0.1628
     26 N3          1.2635   -3.3247    2.9040 N.4       1 <0>        -0.3702
     27 C20         1.9589   -3.5573    1.6109 C.3       1 <0>        -0.0453
     28 C21         2.7026   -4.8978    1.8193 C.3       1 <0>        -0.1388
     29 C22         1.7101   -5.7216    2.6995 C.3       1 <0>        -0.1314
     30 C23        -1.3577   -5.6260    4.0788 C.2       1 <0>         0.4203
     31 O3         -0.8929   -5.7163    5.1956 O.2       1 <0>        -0.4073
     32 C24        -2.6294   -6.2849    3.7576 C.ar      1 <0>        -0.2121
     33 C25        -3.1100   -6.2862    2.4425 C.ar      1 <0>        -0.0460
     34 C26        -4.3034   -6.9068    2.1490 C.ar      1 <0>        -0.1643
     35 C27        -5.0328   -7.5306    3.1493 C.ar      1 <0>        -0.0323
     36 C28        -4.5723   -7.5373    4.4507 C.ar      1 <0>        -0.2202
     37 C29        -3.3694   -6.9233    4.7662 C.ar      1 <0>         0.1989
     38 O4         -2.9129   -6.9344    6.0430 O.3       1 <0>        -0.2849
     39 C30        -3.7196   -7.6030    7.0146 C.3       1 <0>         0.0185
     40 H3          1.0022    1.9182    0.0724 H         1 <0>         0.0822
     41 H4         -0.5551    1.9192   -0.7896 H         1 <0>         0.0837
     42 H5         -0.5229    1.8882    0.9898 H         1 <0>         0.0652
     43 H6         -0.0349   -0.0680   -2.0729 H         1 <0>         0.1471
     44 H7         -0.0130   -2.5282   -2.1326 H         1 <0>         0.1477
     45 H8          0.0259   -3.8089   -0.0257 H         1 <0>         0.1463
     46 H9          0.0354    0.6943    2.8402 H         1 <0>         0.4333
     47 H10        -0.3309   -3.1625    5.7855 H         1 <0>         0.1265
     48 H11        -1.8574   -2.4315    7.5771 H         1 <0>         0.1377
     49 H12        -4.1916   -1.8594    7.0435 H         1 <0>         0.1398
     50 H13        -5.0056   -2.0133    4.7326 H         1 <0>         0.1341
     51 H14        -4.1984   -2.6717    2.1381 H         1 <0>         0.4266
     52 H15         1.2367   -3.6435    0.7990 H         1 <0>         0.1663
     53 H16         2.6680   -2.7546    1.4088 H         1 <0>         0.1379
     54 H17         2.8779   -5.3943    0.8649 H         1 <0>         0.1230
     55 H18         3.6407   -4.7399    2.3514 H         1 <0>         0.1008
     56 H19         2.2481   -6.3177    3.4366 H         1 <0>         0.1177
     57 H20         1.0866   -6.3619    2.0755 H         1 <0>         0.1076
     58 H21        -2.5457   -5.8010    1.6598 H         1 <0>         0.1284
     59 H22        -4.6734   -6.9074    1.1343 H         1 <0>         0.1351
     60 H23        -5.9680   -8.0143    2.9088 H         1 <0>         0.1371
     61 H24        -5.1474   -8.0255    5.2236 H         1 <0>         0.1410
     62 H25        -4.7012   -7.1313    7.0586 H         1 <0>         0.0607
     63 H26        -3.8321   -8.6505    6.7347 H         1 <0>         0.0619
     64 H27        -3.2409   -7.5375    7.9916 H         1 <0>         0.1088
     65 H28         1.8593   -2.8597    3.5725 H         1 <0>         0.4342
@<TRIPOS>BOND
     1    1    2 1
     2    1   40 1
     3    1   41 1
     4    1   42 1
     5    2    7 ar
     6    2    3 ar
     7    3    4 ar
     8    3   43 1
     9    4    5 ar
    10    4   44 1
    11    5    6 ar
    12    5   45 1
    13    6   11 1
    14    6    7 ar
    15    7    8 1
    16    8    9 am
    17    8   46 1
    18    9   10 2
    19    9   11 1
    20   11   26 1
    21   11   12 1
    22   12   20 1
    23   12   13 1
    24   12   22 1
    25   13   18 ar
    26   13   14 ar
    27   14   15 ar
    28   14   47 1
    29   15   16 ar
    30   15   48 1
    31   16   17 ar
    32   16   49 1
    33   17   18 ar
    34   17   50 1
    35   18   19 1
    36   19   20 am
    37   19   51 1
    38   20   21 2
    39   22   23 1
    40   22   24 1
    41   22   30 1
    42   24   25 1
    43   24   29 1
    44   24   26 1
    45   26   27 1
    46   26   65 1
    47   27   28 1
    48   27   52 1
    49   27   53 1
    50   28   29 1
    51   28   54 1
    52   28   55 1
    53   29   56 1
    54   29   57 1
    55   30   31 2
    56   30   32 1
    57   32   37 ar
    58   32   33 ar
    59   33   34 ar
    60   33   58 1
    61   34   35 ar
    62   34   59 1
    63   35   36 ar
    64   35   60 1
    65   36   37 ar
    66   36   61 1
    67   37   38 1
    68   38   39 1
    69   39   62 1
    70   39   63 1
    71   39   64 1
@<TRIPOS>MOLECULE
ZINC40570115
   67    71     0     0     0
SMALL
USER_CHARGES

@<TRIPOS>ATOM
      1 C1          0.2859   -1.0773    0.7584 C.3       1 <0>        -0.1192
      2 C2         -1.1898   -1.1892    0.4740 C.ar      1 <0>        -0.0800
      3 C3         -1.6278   -1.8523   -0.6562 C.ar      1 <0>        -0.1084
      4 C4         -2.9814   -1.9557   -0.9175 C.ar      1 <0>        -0.1047
      5 C5         -3.9004   -1.3956   -0.0490 C.ar      1 <0>        -0.1111
      6 C6         -3.4678   -0.7317    1.0822 C.ar      1 <0>        -0.1128
      7 C7         -2.1098   -0.6314    1.3497 C.ar      1 <0>         0.0782
      8 O1         -1.6817    0.0165    2.4650 O.3       1 <0>        -0.2872
      9 C8         -1.4571   -0.7159    3.5766 C.2       1 <0>         0.5629
     10 O2         -1.5503   -1.9290    3.5354 O.2       1 <0>        -0.4987
     11 C9         -1.1137   -0.0740    4.7889 C.2       1 <0>        -0.3278
     12 C10        -0.8441   -0.6477    6.0149 C.2       1 <0>         0.3102
     13 C11        -0.5111    0.2260    7.1256 C.ar      1 <0>        -0.1701
     14 C12        -0.1988   -0.1214    8.4730 C.ar      1 <0>         0.1069
     15 C13         0.0939    0.8906    9.3846 C.ar      1 <0>        -0.1988
     16 C14         0.0803    2.2097    8.9773 C.ar      1 <0>         0.1864
     17 N1         -0.2130    2.5197    7.7235 N.ar      1 <0>        -0.4329
     18 C15        -0.4974    1.6056    6.8236 C.ar      1 <0>         0.1337
     19 S1         -0.9171    1.6698    5.0992 S.3       1 <0>         0.2156
     20 C16         0.3998    3.3298    9.9356 C.3       1 <0>        -0.0976
     21 C17         0.3072    2.8221   11.3749 C.3       1 <0>        -0.0037
     22 N2          1.1112    1.5959   11.4918 N.4       1 <0>        -0.3865
     23 C18         0.4172    0.5036   10.8042 C.3       1 <0>         0.0547
     24 C19         1.2827    1.2538   12.9101 C.3       1 <0>        -0.0471
     25 C20        -0.1862   -1.5397    8.8978 C.ar      1 <0>        -0.0341
     26 C21         0.8556   -2.3784    8.5010 C.ar      1 <0>        -0.2172
     27 C22         0.8658   -3.7033    8.8994 C.ar      1 <0>         0.1589
     28 C23        -0.1623   -4.1995    9.6949 C.ar      1 <0>         0.0528
     29 C24        -1.2022   -3.3646   10.0917 C.ar      1 <0>         0.1590
     30 C25        -1.2130   -2.0376    9.7002 C.ar      1 <0>        -0.2193
     31 O3         -2.2059   -3.8519   10.8693 O.3       1 <0>        -0.2907
     32 C26        -3.2413   -2.9391   11.2395 C.3       1 <0>         0.0212
     33 O4         -0.1509   -5.5024   10.0847 O.3       1 <0>        -0.3081
     34 C27         0.5092   -5.8057   11.3153 C.3       1 <0>         0.0355
     35 O5          1.8811   -4.5214    8.5128 O.3       1 <0>        -0.2901
     36 C28         2.9030   -3.9458    7.6963 C.3       1 <0>         0.0200
     37 N3         -0.8906   -2.0244    6.1819 N.pl3     1 <0>        -0.8157
     38 H1          0.6072   -1.9326    1.3528 H         1 <0>         0.0720
     39 H2          0.8369   -1.0606   -0.1819 H         1 <0>         0.0762
     40 H3          0.4809   -0.1576    1.3101 H         1 <0>         0.0685
     41 H4         -0.9120   -2.2899   -1.3364 H         1 <0>         0.1328
     42 H5         -3.3217   -2.4745   -1.8015 H         1 <0>         0.1320
     43 H6         -4.9573   -1.4772   -0.2557 H         1 <0>         0.1335
     44 H7         -4.1859   -0.2944    1.7601 H         1 <0>         0.1301
     45 H8          1.4093    3.6937    9.7441 H         1 <0>         0.1212
     46 H9         -0.3110    4.1435    9.7920 H         1 <0>         0.1420
     47 H10         0.6943    3.5799   12.0560 H         1 <0>         0.1486
     48 H11        -0.7322    2.6029   11.6195 H         1 <0>         0.1367
     49 H12        -0.5078    0.2758   11.3340 H         1 <0>         0.1409
     50 H13         1.0547   -0.3805   10.7993 H         1 <0>         0.1407
     51 H14         0.3057    1.0916   13.3654 H         1 <0>         0.1250
     52 H15         1.8786    0.3451   12.9952 H         1 <0>         0.1258
     53 H16         1.7910    2.0709   13.4221 H         1 <0>         0.1312
     54 H17         1.6534   -1.9939    7.8829 H         1 <0>         0.1450
     55 H18        -2.0181   -1.3887   10.0121 H         1 <0>         0.1439
     56 H19        -3.7260   -2.5560   10.3416 H         1 <0>         0.0621
     57 H20        -3.9764   -3.4548   11.8574 H         1 <0>         0.1130
     58 H21        -2.8111   -2.1104   11.8019 H         1 <0>         0.0559
     59 H22         0.4448   -6.8766   11.5079 H         1 <0>         0.1017
     60 H23         1.5564   -5.5110   11.2481 H         1 <0>         0.0477
     61 H24         0.0299   -5.2608   12.1286 H         1 <0>         0.0472
     62 H25         3.6494   -4.7041    7.4600 H         1 <0>         0.1136
     63 H26         2.4618   -3.5701    6.7731 H         1 <0>         0.0618
     64 H27         3.3771   -3.1241    8.2331 H         1 <0>         0.0587
     65 H28        -0.9574   -2.6049    5.4076 H         1 <0>         0.4250
     66 H29        -0.8564   -2.4064    7.0729 H         1 <0>         0.4035
     67 H30         2.0145    1.7425   11.0668 H         1 <0>         0.4298
@<TRIPOS>BOND
     1    1    2 1
     2    1   38 1
     3    1   39 1
     4    1   40 1
     5    2    7 ar
     6    2    3 ar
     7    3    4 ar
     8    3   41 1
     9    4    5 ar
    10    4   42 1
    11    5    6 ar
    12    5   43 1
    13    6    7 ar
    14    6   44 1
    15    7    8 1
    16    8    9 1
    17    9   10 2
    18    9   11 1
    19   11   19 1
    20   11   12 2
    21   12   13 1
    22   12   37 1
    23   13   18 ar
    24   13   14 ar
    25   14   15 ar
    26   14   25 1
    27   15   23 1
    28   15   16 ar
    29   16   17 ar
    30   16   20 1
    31   17   18 ar
    32   18   19 1
    33   20   21 1
    34   20   45 1
    35   20   46 1
    36   21   22 1
    37   21   47 1
    38   21   48 1
    39   22   23 1
    40   22   24 1
    41   22   67 1
    42   23   49 1
    43   23   50 1
    44   24   51 1
    45   24   52 1
    46   24   53 1
    47   25   30 ar
    48   25   26 ar
    49   26   27 ar
    50   26   54 1
    51   27   28 ar
    52   27   35 1
    53   28   29 ar
    54   28   33 1
    55   29   30 ar
    56   29   31 1
    57   30   55 1
    58   31   32 1
    59   32   56 1
    60   32   57 1
    61   32   58 1
    62   33   34 1
    63   34   59 1
    64   34   60 1
    65   34   61 1
    66   35   36 1
    67   36   62 1
    68   36   63 1
    69   36   64 1
    70   37   65 1
    71   37   66 1
@<TRIPOS>MOLECULE
ZINC63383930
   71    75     0     0     0
SMALL
USER_CHARGES

@<TRIPOS>ATOM
      1 C1         -3.6867   -0.3899    1.1821 C.3       1 <0>        -0.1805
      2 C2         -2.3910    0.4159    1.0687 C.3       1 <0>        -0.1205
      3 C3         -1.4591   -0.2563    0.0584 C.3       1 <0>        -0.1002
      4 H1         -1.3493   -1.3109    0.3112 H         1 <0>         0.0870
      5 C4         -0.0888    0.4230    0.0981 C.3       1 <0>        -0.1421
      6 C5         -2.0517   -0.1275   -1.3462 C.3       1 <0>         0.1283
      7 H2         -1.3349   -0.4991   -2.0785 H         1 <0>         0.1213
      8 C6         -3.3214   -0.9348   -1.4318 C.2       1 <0>         0.5239
      9 O1         -4.3691   -0.3897   -1.7076 O.2       1 <0>        -0.5404
     10 N1         -3.2926   -2.2625   -1.2018 N.am      1 <0>        -0.7207
     11 C7         -4.5032   -3.0653   -1.3919 C.3       1 <0>         0.1233
     12 C8         -4.2008   -4.5292   -1.0658 C.3       1 <0>        -0.1089
     13 C9         -3.8572   -4.6604    0.4194 C.3       1 <0>        -0.1519
     14 C10        -5.4278   -5.3864   -1.3830 C.3       1 <0>        -0.1475
     15 N2         -2.3484    1.2800   -1.6240 N.am      1 <0>        -0.6986
     16 C11        -1.4290    2.0550   -2.2328 C.2       1 <0>         0.5026
     17 O2         -0.3948    1.5662   -2.6358 O.2       1 <0>        -0.5133
     18 C12        -1.6862    3.5289   -2.4130 C.3       1 <0>         0.1475
     19 H3         -1.8206    3.9990   -1.4388 H         1 <0>         0.1572
     20 C13        -2.9537    3.7330   -3.2657 C.3       1 <0>        -0.0954
     21 C14        -2.5726    3.4656   -4.7009 C.2       1 <0>         0.0527
     22 C15        -3.1122    2.6561   -5.6064 C.ar      1 <0>        -0.1522
     23 C16        -4.3167    1.8112   -5.5694 C.ar      1 <0>         0.0045
     24 C17        -4.5713    1.0811   -6.6874 C.ar      1 <0>        -0.1586
     25 C18        -3.7588    1.1072   -7.8251 C.ar      1 <0>         0.0597
     26 C19        -2.6378    1.8613   -7.9495 C.ar      1 <0>        -0.2098
     27 C20        -2.2702    2.6779   -6.8407 C.ar      1 <0>         0.3379
     28 N3         -1.2740    3.5001   -6.6964 N.pl3     1 <0>        -0.5734
     29 C21        -1.3873    4.1387   -5.3837 C.3       1 <0>         0.0857
     30 H4         -1.5561    5.2105   -5.4878 H         1 <0>         0.1822
     31 C22        -0.1622    3.8517   -4.5081 C.3       1 <0>         0.1914
     32 H5          0.1525    2.8134   -4.6122 H         1 <0>         0.1349
     33 N4         -0.5488    4.1473   -3.1068 N.am      1 <0>        -0.6020
     34 C23         0.2948    5.0674   -2.6055 C.2       1 <0>         0.5742
     35 O3          0.2886    5.4644   -1.4567 O.2       1 <0>        -0.4863
     36 C24         1.2220    5.5209   -3.6440 C.ar      1 <0>        -0.1539
     37 C25         0.9593    4.7814   -4.8401 C.ar      1 <0>        -0.1099
     38 C26         1.6711    4.9819   -6.0020 C.ar      1 <0>        -0.0905
     39 C27         2.6767    5.9437   -5.9688 C.ar      1 <0>        -0.0819
     40 C28         2.9542    6.6665   -4.8259 C.ar      1 <0>        -0.1104
     41 C29         2.2313    6.4866   -3.6082 C.ar      1 <0>        -0.0177
     42 H6         -4.2445   -0.0594    2.0583 H         1 <0>         0.0587
     43 H7         -4.2901   -0.2354    0.2877 H         1 <0>         0.0733
     44 H8         -3.4484   -1.4489    1.2812 H         1 <0>         0.0567
     45 H9         -2.6205    1.4276    0.7341 H         1 <0>         0.0634
     46 H10        -1.9024    0.4572    2.0422 H         1 <0>         0.0715
     47 H11         0.3767    0.2457    1.0676 H         1 <0>         0.0629
     48 H12         0.5434    0.0121   -0.6891 H         1 <0>         0.0624
     49 H13        -0.2102    1.4952   -0.0560 H         1 <0>         0.0514
     50 H14        -2.4702   -2.6865   -0.9104 H         1 <0>         0.4038
     51 H15        -5.2887   -2.7004   -0.7302 H         1 <0>         0.0742
     52 H16        -4.8338   -2.9845   -2.4274 H         1 <0>         0.0693
     53 H17        -3.3560   -4.8680   -1.6654 H         1 <0>         0.0771
     54 H18        -2.9831   -4.0497    0.6454 H         1 <0>         0.0527
     55 H19        -4.7020   -4.3216    1.0191 H         1 <0>         0.0599
     56 H20        -3.6418   -5.7033    0.6517 H         1 <0>         0.0624
     57 H21        -5.6725   -5.2929   -2.4411 H         1 <0>         0.0581
     58 H22        -5.2123   -6.4293   -1.1507 H         1 <0>         0.0643
     59 H23        -6.2726   -5.0475   -0.7834 H         1 <0>         0.0603
     60 H24        -3.2064    1.6542   -1.3696 H         1 <0>         0.4121
     61 H25        -3.7292    3.0347   -2.9511 H         1 <0>         0.1301
     62 H26        -3.3106    4.7576   -3.1610 H         1 <0>         0.1440
     63 H27        -4.9611    1.7732   -4.7036 H         1 <0>         0.1717
     64 H28        -5.4461    0.4478   -6.6973 H         1 <0>         0.1561
     65 H29        -4.0426    0.4850   -8.6610 H         1 <0>         0.1593
     66 H30        -2.0470    1.8433   -8.8535 H         1 <0>         0.1706
     67 H31         1.4588    4.4179   -6.8983 H         1 <0>         0.1333
     68 H32         3.2558    6.1292   -6.8613 H         1 <0>         0.1408
     69 H33         3.7463    7.4003   -4.8487 H         1 <0>         0.1411
     70 H34         2.4452    7.0480   -2.7107 H         1 <0>         0.1563
     71 H35        -0.5737    3.6627   -7.3477 H         1 <0>         0.4543
@<TRIPOS>BOND
     1    1    2 1
     2    1   42 1
     3    1   43 1
     4    1   44 1
     5    2    3 1
     6    2   45 1
     7    2   46 1
     8    3    4 1
     9    3    5 1
    10    3    6 1
    11    5   47 1
    12    5   48 1
    13    5   49 1
    14    6    7 1
    15    6    8 1
    16    6   15 1
    17    8    9 2
    18    8   10 am
    19   10   11 1
    20   10   50 1
    21   11   12 1
    22   11   51 1
    23   11   52 1
    24   12   13 1
    25   12   14 1
    26   12   53 1
    27   13   54 1
    28   13   55 1
    29   13   56 1
    30   14   57 1
    31   14   58 1
    32   14   59 1
    33   15   16 am
    34   15   60 1
    35   16   17 2
    36   16   18 1
    37   18   19 1
    38   18   33 1
    39   18   20 1
    40   20   21 1
    41   20   61 1
    42   20   62 1
    43   21   29 1
    44   21   22 2
    45   22   27 ar
    46   22   23 ar
    47   23   24 ar
    48   23   63 1
    49   24   25 ar
    50   24   64 1
    51   25   26 ar
    52   25   65 1
    53   26   27 ar
    54   26   66 1
    55   27   28 2
    56   28   29 1
    57   28   71 1
    58   29   30 1
    59   29   31 1
    60   31   32 1
    61   31   37 1
    62   31   33 1
    63   33   34 am
    64   34   35 2
    65   34   36 1
    66   36   41 ar
    67   36   37 ar
    68   37   38 ar
    69   38   39 ar
    70   38   67 1
    71   39   40 ar
    72   39   68 1
    73   40   41 ar
    74   40   69 1
    75   41   70 1
@<TRIPOS>MOLECULE
ZINC08869031
   61    64     0     0     0
SMALL
USER_CHARGES
8-[1-(4-chlorophenyl)sulfonylpyrrolidin-2-yl]carbonylamino-4-propyl-7-thia-4-azabicyclo[4.3.0]nona-8,10-diene-9-carboxamide
@<TRIPOS>ATOM
      1 C1         -3.5772   -7.9578    7.8353 C.3       1 <0>        -0.1561
      2 C2         -2.8538   -6.9942    6.8923 C.3       1 <0>        -0.1527
      3 C3         -1.8809   -6.1287    7.6956 C.3       1 <0>        -0.0050
      4 C4         -0.0804   -4.5238    7.4788 C.3       1 <0>         0.0022
      5 C5          0.8515   -3.8665    6.4566 C.3       1 <0>        -0.0897
      6 C6          0.0033   -3.0147    5.5195 C.2       1 <0>        -0.0393
      7 C7         -1.3329   -3.2112    5.4468 C.2       1 <0>        -0.3214
      8 S1         -1.8992   -2.0265    4.2619 S.3       1 <0>         0.3316
      9 C8         -0.3854   -1.2808    3.8666 C.2       1 <0>         0.1086
     10 C9          0.5240   -1.9707    4.6574 C.2       1 <0>        -0.2404
     11 C10         1.9550   -1.6530    4.6257 C.2       1 <0>         0.5767
     12 O1          2.4101   -0.8185    5.3859 O.2       1 <0>        -0.5203
     13 N1          2.7665   -2.2850    3.7547 N.am      1 <0>        -0.8452
     14 N2         -0.1408   -0.2492    2.9728 N.am      1 <0>        -0.6144
     15 C11        -1.1597    0.2998    2.2821 C.2       1 <0>         0.5047
     16 O2         -2.2904   -0.1084    2.4424 O.2       1 <0>        -0.4767
     17 C12        -0.8938    1.4208    1.3107 C.3       1 <0>         0.1435
     18 H1         -0.0825    2.0487    1.6791 H         1 <0>         0.1108
     19 C13        -0.5234    0.8414   -0.0708 C.3       1 <0>        -0.1185
     20 C14        -1.2238    1.8117   -1.0584 C.3       1 <0>        -0.1275
     21 C15        -2.5224    2.1565   -0.2874 C.3       1 <0>         0.1158
     22 N3         -2.1132    2.2300    1.1270 N.pl3     1 <0>        -0.9928
     23 S2         -2.8937    3.0801    2.3146 S.o2      1 <0>         2.7053
     24 O3         -4.2687    3.1082    1.9571 O.2       1 <0>        -0.9344
     25 O4         -2.4396    2.5558    3.5548 O.2       1 <0>        -0.9449
     26 C16        -2.3173    4.7430    2.2295 C.ar      1 <0>        -0.6836
     27 C17        -1.1502    5.1036    2.8768 C.ar      1 <0>        -0.0081
     28 C18        -0.6945    6.4066    2.8058 C.ar      1 <0>        -0.1297
     29 C19        -1.4126    7.3525    2.0960 C.ar      1 <0>         0.0210
     30 C20        -2.5835    6.9922    1.4531 C.ar      1 <0>        -0.1277
     31 C21        -3.0352    5.6877    1.5202 C.ar      1 <0>        -0.0063
     32 Cl1        -0.8449    8.9909    2.0127 Cl        1 <0>        -0.0436
     33 C22        -2.1254   -4.2221    6.2149 C.3       1 <0>         0.1073
     34 H2         -2.8471   -8.5969    8.3318 H         1 <0>         0.0669
     35 H3         -4.1296   -7.3884    8.5828 H         1 <0>         0.0674
     36 H4         -4.2703   -8.5744    7.2630 H         1 <0>         0.0773
     37 H5         -3.5839   -6.3551    6.3958 H         1 <0>         0.0866
     38 H6         -2.3014   -7.5636    6.1448 H         1 <0>         0.0862
     39 H7         -1.1508   -6.7678    8.1921 H         1 <0>         0.1324
     40 H8         -2.4333   -5.5593    8.4431 H         1 <0>         0.1335
     41 H9          0.4816   -5.2507    8.0652 H         1 <0>         0.1376
     42 H10        -0.4836   -3.7600    8.1438 H         1 <0>         0.1352
     43 H11         1.3717   -4.6353    5.8853 H         1 <0>         0.1059
     44 H12         1.5765   -3.2362    6.9716 H         1 <0>         0.1245
     45 H13         2.4038   -2.9501    3.1489 H         1 <0>         0.4039
     46 H14         3.7132   -2.0748    3.7337 H         1 <0>         0.4097
     47 H15         0.7636    0.0772    2.8446 H         1 <0>         0.4269
     48 H16        -0.9137   -0.1702   -0.1820 H         1 <0>         0.0869
     49 H17         0.5566    0.8549   -0.2176 H         1 <0>         0.0994
     50 H18        -0.6195    2.7035   -1.2246 H         1 <0>         0.0867
     51 H19        -1.4498    1.3136   -2.0013 H         1 <0>         0.0972
     52 H20        -2.9165    3.1172   -0.6187 H         1 <0>         0.0874
     53 H21        -3.2660    1.3719   -0.4269 H         1 <0>         0.0839
     54 H22        -0.5921    4.3661    3.4345 H         1 <0>         0.1452
     55 H23         0.2195    6.6872    3.3079 H         1 <0>         0.1475
     56 H24        -3.1446    7.7303    0.8992 H         1 <0>         0.1494
     57 H25        -3.9494    5.4064    1.0187 H         1 <0>         0.1529
     58 H26        -2.6757   -3.7272    7.0150 H         1 <0>         0.1442
     59 H27        -2.8224   -4.7278    5.5466 H         1 <0>         0.1411
     60 N4         -1.1753   -5.2170    6.7695 N.4       1 <0>        -0.3945
     61 H28        -0.7786   -5.7665    5.9981 H         1 <0>         0.4294
@<TRIPOS>BOND
     1    1    2 1
     2    1   34 1
     3    1   35 1
     4    1   36 1
     5    2    3 1
     6    2   37 1
     7    2   38 1
     8    3   39 1
     9    3   40 1
    10    3   60 1
    11    4    5 1
    12    4   41 1
    13    4   42 1
    14    4   60 1
    15    5    6 1
    16    5   43 1
    17    5   44 1
    18    6   10 1
    19    6    7 2
    20    7    8 1
    21    7   33 1
    22    8    9 1
    23    9   10 2
    24    9   14 1
    25   10   11 1
    26   11   12 2
    27   11   13 am
    28   13   45 1
    29   13   46 1
    30   14   15 am
    31   14   47 1
    32   15   16 2
    33   15   17 1
    34   17   18 1
    35   17   22 1
    36   17   19 1
    37   19   20 1
    38   19   48 1
    39   19   49 1
    40   20   21 1
    41   20   50 1
    42   20   51 1
    43   21   22 1
    44   21   52 1
    45   21   53 1
    46   22   23 1
    47   23   24 2
    48   23   25 2
    49   23   26 1
    50   26   31 ar
    51   26   27 ar
    52   27   28 ar
    53   27   54 1
    54   28   29 ar
    55   28   55 1
    56   29   30 ar
    57   29   32 1
    58   30   31 ar
    59   30   56 1
    60   31   57 1
    61   33   58 1
    62   33   59 1
    63   33   60 1
    64   60   61 1
@<TRIPOS>MOLECULE
ZINC15946879
   66    68     0     0     0
SMALL
USER_CHARGES
(6S)-6-tert-butyl-2-[[2-(isopropylamino)acetyl]amino]-N-(3-nitrophenyl)-4,5,6,7-tetrahydrobenzothiophene-3-carboxamide
@<TRIPOS>ATOM
      1 C1         -1.5615    9.0790   -8.4915 C.3       1 <0>        -0.1861
      2 C2         -0.9782    8.0793   -7.4909 C.3       1 <0>         0.0283
      3 C3          0.4778    7.7832   -7.8557 C.3       1 <0>        -0.1863
      4 C4         -1.0647    7.5893   -5.1213 C.3       1 <0>        -0.0183
      5 C5         -1.1258    8.2106   -3.7497 C.2       1 <0>         0.4927
      6 O1         -1.1451    9.4174   -3.6309 O.2       1 <0>        -0.4912
      7 N1         -1.1589    7.4251   -2.6549 N.am      1 <0>        -0.5958
      8 C6         -1.2151    7.9968   -1.3929 C.2       1 <0>         0.0315
      9 C7         -1.2555    7.3617   -0.1595 C.2       1 <0>        -0.1906
     10 C8         -1.3057    8.2001    1.0261 C.2       1 <0>        -0.0726
     11 C9         -1.3125    9.5301    0.7903 C.2       1 <0>        -0.1732
     12 S1         -1.2540    9.6773   -0.9730 S.3       1 <0>         0.2445
     13 C10        -1.3590   10.6277    1.8081 C.3       1 <0>        -0.0429
     14 C11        -1.0208   10.0287    3.1811 C.3       1 <0>        -0.0686
     15 H1          0.0403    9.7829    3.2234 H         1 <0>         0.0787
     16 C12        -1.8506    8.7575    3.3828 C.3       1 <0>        -0.1208
     17 C13        -1.3489    7.6551    2.4484 C.3       1 <0>        -0.0638
     18 C14        -1.3570   11.0402    4.2787 C.3       1 <0>        -0.0623
     19 C15        -1.0352   10.4344    5.6464 C.3       1 <0>        -0.1470
     20 C16        -0.5267   12.3090    4.0748 C.3       1 <0>        -0.1465
     21 C17        -2.8454   11.3885    4.2127 C.3       1 <0>        -0.1499
     22 C18        -1.2418    5.8994   -0.0566 C.2       1 <0>         0.5798
     23 O2         -2.2896    5.2800   -0.0497 O.2       1 <0>        -0.4974
     24 N2         -0.0691    5.2409    0.0304 N.am      1 <0>        -0.6648
     25 C19        -0.0497    3.8425    0.0174 C.ar      1 <0>         0.1465
     26 C20        -0.9883    3.1402   -0.7278 C.ar      1 <0>        -0.0774
     27 C21        -0.9626    1.7597   -0.7434 C.ar      1 <0>        -0.0929
     28 C22        -0.0106    1.0760   -0.0091 C.ar      1 <0>        -0.0650
     29 C23         0.9251    1.7719    0.7337 C.ar      1 <0>        -0.0184
     30 C24         0.9083    3.1531    0.7490 C.ar      1 <0>        -0.0831
     31 N3          1.9462    1.0363    1.5129 N.pl3     1 <0>         0.0229
     32 O3          1.9618   -0.1816    1.4995 O.2       1 <0>        -0.1450
     33 O4          2.7708    1.6487    2.1674 O.3       1 <0>        -0.1522
     34 H2         -0.9841   10.0030   -8.4606 H         1 <0>         0.0850
     35 H3         -1.5172    8.6563   -9.4952 H         1 <0>         0.1108
     36 H4         -2.5988    9.2900   -8.2316 H         1 <0>         0.0842
     37 H5         -1.5557    7.1554   -7.5218 H         1 <0>         0.1422
     38 H6          0.8934    7.0710   -7.1428 H         1 <0>         0.0794
     39 H7          0.5222    7.3605   -8.8594 H         1 <0>         0.1107
     40 H8          1.0553    8.7072   -7.8248 H         1 <0>         0.0853
     41 H9         -0.1633    6.9822   -5.2053 H         1 <0>         0.1669
     42 H10        -1.9417    6.9605   -5.2747 H         1 <0>         0.1687
     43 H11        -1.1434    6.4599   -2.7499 H         1 <0>         0.4251
     44 H12        -2.3579   11.0629    1.8334 H         1 <0>         0.0950
     45 H13        -0.6297   11.3967    1.5533 H         1 <0>         0.0877
     46 H14        -2.8970    8.9696    3.1636 H         1 <0>         0.0715
     47 H15        -1.7586    8.4253    4.4169 H         1 <0>         0.0814
     48 H16        -2.0264    6.8024    2.4925 H         1 <0>         0.0776
     49 H17        -0.3487    7.3460    2.7518 H         1 <0>         0.0809
     50 H18         0.0251   10.1862    5.6934 H         1 <0>         0.0563
     51 H19        -1.2748   11.1550    6.4283 H         1 <0>         0.0587
     52 H20        -1.6268    9.5305    5.7917 H         1 <0>         0.0595
     53 H21        -0.7560   12.7405    3.1005 H         1 <0>         0.0558
     54 H22        -0.7663   13.0295    4.8568 H         1 <0>         0.0588
     55 H23         0.5336   12.0608    4.1219 H         1 <0>         0.0562
     56 H24        -3.4369   10.4846    4.3580 H         1 <0>         0.0587
     57 H25        -3.0849   12.1091    4.9947 H         1 <0>         0.0584
     58 H26        -3.0746   11.8201    3.2383 H         1 <0>         0.0569
     59 H27         0.7615    5.7369    0.1020 H         1 <0>         0.4193
     60 H28        -1.7344    3.6735   -1.2982 H         1 <0>         0.1487
     61 H29        -1.6893    1.2132   -1.3261 H         1 <0>         0.1551
     62 H30         0.0046   -0.0039   -0.0194 H         1 <0>         0.1598
     63 H31         1.6397    3.6961    1.3291 H         1 <0>         0.1585
     64 N4         -1.0381    8.6596   -6.1359 N.4       1 <0>        -0.5064
     65 H32        -1.8875    9.2299   -6.0490 H         1 <0>         0.4410
     66 H33        -0.2122    9.2502   -5.9836 H         1 <0>         0.4397
@<TRIPOS>BOND
     1    1    2 1
     2    1   34 1
     3    1   35 1
     4    1   36 1
     5    2    3 1
     6    2   37 1
     7    2   64 1
     8    3   38 1
     9    3   39 1
    10    3   40 1
    11    4    5 1
    12    4   41 1
    13    4   42 1
    14    4   64 1
    15    5    6 2
    16    5    7 am
    17    7    8 1
    18    7   43 1
    19    8   12 1
    20    8    9 2
    21    9   10 1
    22    9   22 1
    23   10   17 1
    24   10   11 2
    25   11   12 1
    26   11   13 1
    27   13   14 1
    28   13   44 1
    29   13   45 1
    30   14   15 1
    31   14   16 1
    32   14   18 1
    33   16   17 1
    34   16   46 1
    35   16   47 1
    36   17   48 1
    37   17   49 1
    38   18   19 1
    39   18   20 1
    40   18   21 1
    41   19   50 1
    42   19   51 1
    43   19   52 1
    44   20   53 1
    45   20   54 1
    46   20   55 1
    47   21   56 1
    48   21   57 1
    49   21   58 1
    50   22   23 2
    51   22   24 am
    52   24   25 1
    53   24   59 1
    54   25   30 ar
    55   25   26 ar
    56   26   27 ar
    57   26   60 1
    58   27   28 ar
    59   27   61 1
    60   28   29 ar
    61   28   62 1
    62   29   30 ar
    63   29   31 1
    64   30   63 1
    65   31   32 2
    66   31   33 1
    67   64   65 1
    68   64   66 1
@<TRIPOS>MOLECULE
ZINC38769713
   63    67     0     0     0
SMALL
USER_CHARGES

@<TRIPOS>ATOM
      1 C1          0.1246    1.4539    0.2239 C.3       1 <0>        -0.1173
      2 C2          0.1132   -0.0527    0.1919 C.ar      1 <0>        -0.0871
      3 C3          0.7246   -0.7254   -0.8504 C.ar      1 <0>        -0.1064
      4 C4          0.7158   -2.1059   -0.8827 C.ar      1 <0>        -0.1088
      5 C5          0.0926   -2.8189    0.1333 C.ar      1 <0>         0.1399
      6 C6         -0.5199   -2.1406    1.1786 C.ar      1 <0>        -0.1037
      7 C7         -0.5035   -0.7596    1.2076 C.ar      1 <0>        -0.1038
      8 C8         -1.1973   -2.9102    2.2831 C.3       1 <0>        -0.1145
      9 N1          0.0816   -4.2179    0.1034 N.am      1 <0>        -0.6716
     10 C9          0.0009   -4.8660   -1.0755 C.2       1 <0>         0.6929
     11 O1          0.0175   -4.2386   -2.1163 O.2       1 <0>        -0.5020
     12 N2         -0.0982   -6.2099   -1.1003 N.am      1 <0>        -0.6849
     13 C10        -0.1789   -6.8581   -2.2792 C.2       1 <0>         0.5348
     14 O2         -0.1623   -6.2323   -3.3174 O.2       1 <0>        -0.4313
     15 C11        -0.2897   -8.3607   -2.3069 C.3       1 <0>        -0.0806
     16 H1          0.2937   -8.7832   -1.4888 H         1 <0>         0.1049
     17 C12        -1.7564   -8.7669   -2.1502 C.3       1 <0>        -0.1631
     18 S1          0.3450   -8.9849   -3.8874 S.3       1 <0>        -0.1641
     19 C13         0.2853  -10.7885   -3.7029 C.3       1 <0>         0.3737
     20 H2          0.6379  -11.2757   -4.6119 H         1 <0>         0.1363
     21 N3         -1.0822  -11.2281   -3.3802 N.pl3     1 <0>        -0.5820
     22 N4         -1.0151  -11.8492   -2.1276 N.2       1 <0>        -0.1747
     23 C14         0.2046  -11.8407   -1.6584 C.2       1 <0>         0.2629
     24 N5          1.0888  -11.2146   -2.5454 N.pl3     1 <0>        -0.6067
     25 C15         2.5290  -11.0202   -2.3598 C.3       1 <0>         0.0759
     26 C16         3.2819  -10.2423   -3.4409 C.3       1 <0>        -0.1574
     27 C17         3.4701  -11.7555   -3.3160 C.3       1 <0>        -0.1884
     28 C18         0.5809  -12.3899   -0.4230 C.2       1 <0>         0.1336
     29 C19        -0.2237  -13.1114    0.4595 C.ar      1 <0>        -0.1401
     30 C20        -1.5788  -13.5021    0.4116 C.ar      1 <0>        -0.0119
     31 C21        -2.1103  -14.2172    1.4364 C.ar      1 <0>        -0.1482
     32 C22        -1.3467  -14.5808    2.5477 C.ar      1 <0>         0.0482
     33 C23        -0.0394  -14.2394    2.6599 C.ar      1 <0>        -0.2053
     34 C24         0.5856  -13.4921    1.6286 C.ar      1 <0>         0.3152
     35 N6          1.8196  -13.0448    1.5006 N.pl3     1 <0>        -0.5986
     36 C25         1.9454  -12.3290    0.2273 C.3       1 <0>         0.0780
     37 H3          1.0111    1.7993    0.7558 H         1 <0>         0.0728
     38 H4          0.1397    1.8389   -0.7957 H         1 <0>         0.0687
     39 H5         -0.7687    1.8132    0.7348 H         1 <0>         0.0679
     40 H6          1.2090   -0.1704   -1.6402 H         1 <0>         0.1280
     41 H7          1.1928   -2.6306   -1.6973 H         1 <0>         0.1398
     42 H8         -0.9762   -0.2315    2.0224 H         1 <0>         0.1286
     43 H9         -0.4792   -3.1137    3.0775 H         1 <0>         0.0717
     44 H10        -2.0235   -2.3218    2.6821 H         1 <0>         0.0744
     45 H11        -1.5791   -3.8518    1.8885 H         1 <0>         0.0595
     46 H12         0.1321   -4.7211    0.9311 H         1 <0>         0.4067
     47 H13        -0.1114   -6.7106   -0.2696 H         1 <0>         0.4079
     48 H14        -1.8366   -9.8538   -2.1702 H         1 <0>         0.0877
     49 H15        -2.1379   -8.3919   -1.2004 H         1 <0>         0.0708
     50 H16        -2.3398   -8.3445   -2.9683 H         1 <0>         0.0825
     51 H17        -1.8742  -11.1100   -3.9277 H         1 <0>         0.4696
     52 H18         2.8573  -10.8945   -1.3280 H         1 <0>         0.1320
     53 H19         2.7058   -9.8752   -4.2903 H         1 <0>         0.1150
     54 H20         4.1058   -9.6045   -3.1205 H         1 <0>         0.1172
     55 H21         4.4178  -12.1133   -2.9135 H         1 <0>         0.1128
     56 H22         3.0178  -12.3839   -4.0832 H         1 <0>         0.1034
     57 H23        -2.1909  -13.2332   -0.4366 H         1 <0>         0.1611
     58 H24        -3.1485  -14.5114    1.3912 H         1 <0>         0.1561
     59 H25        -1.8106  -15.1495    3.3400 H         1 <0>         0.1610
     60 H26         0.5246  -14.5352    3.5322 H         1 <0>         0.1608
     61 H27         2.6858  -12.8155   -0.4077 H         1 <0>         0.1750
     62 H28         2.2288  -11.2922    0.4086 H         1 <0>         0.1701
     63 H29         2.5328  -13.1729    2.1454 H         1 <0>         0.4551
@<TRIPOS>BOND
     1    1    2 1
     2    1   37 1
     3    1   38 1
     4    1   39 1
     5    2    7 ar
     6    2    3 ar
     7    3    4 ar
     8    3   40 1
     9    4    5 ar
    10    4   41 1
    11    5    6 ar
    12    5    9 1
    13    6    7 ar
    14    6    8 1
    15    7   42 1
    16    8   43 1
    17    8   44 1
    18    8   45 1
    19    9   10 am
    20    9   46 1
    21   10   11 2
    22   10   12 am
    23   12   13 am
    24   12   47 1
    25   13   14 2
    26   13   15 1
    27   15   16 1
    28   15   17 1
    29   15   18 1
    30   17   48 1
    31   17   49 1
    32   17   50 1
    33   18   19 1
    34   19   20 1
    35   19   24 1
    36   19   21 1
    37   21   22 1
    38   21   51 1
    39   22   23 2
    40   23   24 1
    41   23   28 1
    42   24   25 1
    43   25   27 1
    44   25   26 1
    45   25   52 1
    46   26   27 1
    47   26   53 1
    48   26   54 1
    49   27   55 1
    50   27   56 1
    51   28   36 1
    52   28   29 2
    53   29   34 ar
    54   29   30 ar
    55   30   31 ar
    56   30   57 1
    57   31   32 ar
    58   31   58 1
    59   32   33 ar
    60   32   59 1
    61   33   34 ar
    62   33   60 1
    63   34   35 2
    64   35   36 1
    65   35   63 1
    66   36   61 1
    67   36   62 1
@<TRIPOS>MOLECULE
ZINC39695857
   70    75     0     0     0
SMALL
USER_CHARGES

@<TRIPOS>ATOM
      1 C1          8.0532   -5.0777    2.3948 C.3       1 <0>        -0.1182
      2 C2          6.7463   -5.8278    2.3753 C.ar      1 <0>        -0.0554
      3 C3          6.7126   -7.1421    1.9311 C.ar      1 <0>        -0.1212
      4 C4          5.5381   -7.8392    1.9057 C.ar      1 <0>        -0.0603
      5 C5          4.3559   -7.2272    2.3307 C.ar      1 <0>         0.0400
      6 C6          4.3895   -5.8967    2.7810 C.ar      1 <0>         0.0602
      7 C7          5.5933   -5.2056    2.8042 C.ar      1 <0>        -0.1162
      8 N1          3.0913   -5.5784    3.1263 N.pl3     1 <0>        -0.5900
      9 H1          2.7810   -4.7278    3.4743 H         1 <0>         0.4261
     10 C8          2.3278   -6.6788    2.8878 C.2       1 <0>         0.2629
     11 N2          3.0667   -7.6434    2.4225 N.2       1 <0>        -0.4864
     12 C9          0.8427   -6.7677    3.1280 C.3       1 <0>         0.2266
     13 C10         0.5838   -7.1387    4.5896 C.3       1 <0>        -0.1607
     14 N3          0.2673   -7.7935    2.2545 N.am      1 <0>        -0.7146
     15 C11        -1.0329   -7.7295    1.9057 C.2       1 <0>         0.5254
     16 O1         -1.7267   -6.8227    2.3149 O.2       1 <0>        -0.5185
     17 C12        -1.6248   -8.7847    1.0072 C.3       1 <0>        -0.1119
     18 C13        -2.9140   -8.2591    0.3369 C.3       1 <0>         0.0896
     19 N4         -3.8210   -9.4304    0.2999 N.am      1 <0>        -0.6047
     20 C14        -3.5960  -10.1119    1.5972 C.3       1 <0>         0.1080
     21 C15        -2.0795   -9.9988    1.8344 C.3       1 <0>        -0.0735
     22 C16        -1.7945   -9.7662    3.3150 C.3       1 <0>        -0.1506
     23 C17        -2.2012  -11.0100    4.1102 C.3       1 <0>        -0.0073
     24 N5         -1.4485  -12.1723    3.6230 N.4       1 <0>        -0.5044
     25 C18        -1.7993  -12.4454    2.2241 C.3       1 <0>        -0.0109
     26 C19        -1.3755  -11.2623    1.3492 C.3       1 <0>        -0.1352
     27 C20        -4.6605   -9.7943   -0.6897 C.2       1 <0>         0.5993
     28 O2         -5.4059  -10.7414   -0.5365 O.2       1 <0>        -0.5208
     29 C21        -4.6744   -9.0387   -1.9654 C.ar      1 <0>         0.1126
     30 C22        -5.6311   -9.3577   -2.9404 C.ar      1 <0>        -0.1285
     31 C23        -5.6549   -8.6693   -4.1189 C.ar      1 <0>        -0.0502
     32 C24        -4.7041   -7.6499   -4.3141 C.ar      1 <0>        -0.0819
     33 C25        -4.6712   -6.9014   -5.5017 C.ar      1 <0>        -0.0991
     34 C26        -3.7374   -5.9228   -5.6553 C.ar      1 <0>        -0.1001
     35 C27        -2.8113   -5.6520   -4.6487 C.ar      1 <0>        -0.0937
     36 C28        -2.8129   -6.3561   -3.4852 C.ar      1 <0>        -0.0919
     37 C29        -3.7628   -7.3767   -3.2877 C.ar      1 <0>         0.1219
     38 N6         -3.7904   -8.0785   -2.1550 N.ar      1 <0>        -0.4416
     39 H2          8.5447   -5.2291    3.3559 H         1 <0>         0.0764
     40 H3          8.6960   -5.4470    1.5958 H         1 <0>         0.0733
     41 H4          7.8641   -4.0145    2.2470 H         1 <0>         0.0695
     42 H5          7.6242   -7.6186    1.6018 H         1 <0>         0.1337
     43 H6          5.5232   -8.8614    1.5574 H         1 <0>         0.1303
     44 H7          5.6257   -4.1839    3.1528 H         1 <0>         0.1266
     45 H8          0.3811   -5.8046    2.9104 H         1 <0>         0.1114
     46 H9          1.0454   -8.1019    4.8072 H         1 <0>         0.0659
     47 H10         1.0119   -6.3755    5.2395 H         1 <0>         0.0742
     48 H11        -0.4904   -7.2030    4.7633 H         1 <0>         0.0764
     49 H12         0.8222   -8.5187    1.9273 H         1 <0>         0.4130
     50 H13        -0.8999   -9.0897    0.2525 H         1 <0>         0.1138
     51 H14        -3.3521   -7.4578    0.9318 H         1 <0>         0.0950
     52 H15        -2.7018   -7.9107   -0.6739 H         1 <0>         0.1418
     53 H16        -4.1442   -9.6067    2.3925 H         1 <0>         0.0858
     54 H17        -3.8942  -11.1585    1.5339 H         1 <0>         0.0893
     55 H18        -0.7303   -9.5765    3.4553 H         1 <0>         0.1012
     56 H19        -2.3669   -8.9072    3.6652 H         1 <0>         0.1238
     57 H20        -1.9831  -10.8530    5.1665 H         1 <0>         0.1388
     58 H21        -3.2687  -11.1894    3.9828 H         1 <0>         0.1334
     59 H22        -0.4597  -11.9830    3.6896 H         1 <0>         0.4283
     60 H23        -1.2850  -13.3466    1.8901 H         1 <0>         0.1397
     61 H24        -2.8764  -12.5906    2.1415 H         1 <0>         0.1339
     62 H25        -1.6525  -11.4582    0.3133 H         1 <0>         0.1180
     63 H26        -0.2962  -11.1269    1.4183 H         1 <0>         0.0985
     64 H27        -6.3467  -10.1461   -2.7593 H         1 <0>         0.1519
     65 H28        -6.3837   -8.9009   -4.8815 H         1 <0>         0.1513
     66 H29        -5.3826   -7.1013   -6.2893 H         1 <0>         0.1377
     67 H30        -3.7134   -5.3484   -6.5696 H         1 <0>         0.1351
     68 H31        -2.0805   -4.8705   -4.7956 H         1 <0>         0.1360
     69 H32        -2.0886   -6.1332   -2.7157 H         1 <0>         0.1371
     70 H33        -1.6729  -12.9776    4.1881 H         1 <0>         0.4339
@<TRIPOS>BOND
     1    1    2 1
     2    1   39 1
     3    1   40 1
     4    1   41 1
     5    2    7 ar
     6    2    3 ar
     7    3    4 ar
     8    3   42 1
     9    4    5 ar
    10    4   43 1
    11    5   11 1
    12    5    6 ar
    13    6    7 ar
    14    6    8 1
    15    7   44 1
    16    8    9 1
    17    8   10 1
    18   10   11 2
    19   10   12 1
    20   12   13 1
    21   12   14 1
    22   12   45 1
    23   13   46 1
    24   13   47 1
    25   13   48 1
    26   14   15 am
    27   14   49 1
    28   15   16 2
    29   15   17 1
    30   17   21 1
    31   17   18 1
    32   17   50 1
    33   18   19 1
    34   18   51 1
    35   18   52 1
    36   19   20 1
    37   19   27 am
    38   20   21 1
    39   20   53 1
    40   20   54 1
    41   21   26 1
    42   21   22 1
    43   22   23 1
    44   22   55 1
    45   22   56 1
    46   23   24 1
    47   23   57 1
    48   23   58 1
    49   24   25 1
    50   24   59 1
    51   24   70 1
    52   25   26 1
    53   25   60 1
    54   25   61 1
    55   26   62 1
    56   26   63 1
    57   27   28 2
    58   27   29 1
    59   29   38 ar
    60   29   30 ar
    61   30   31 ar
    62   30   64 1
    63   31   32 ar
    64   31   65 1
    65   32   37 ar
    66   32   33 ar
    67   33   34 ar
    68   33   66 1
    69   34   35 ar
    70   34   67 1
    71   35   36 ar
    72   35   68 1
    73   36   37 ar
    74   36   69 1
    75   37   38 ar
@<TRIPOS>MOLECULE
ZINC59170711
   54    57     0     0     0
SMALL
USER_CHARGES

@<TRIPOS>ATOM
      1 C1         -0.7678    1.3743   -0.4813 C.3       1 <0>         0.0157
      2 O1         -0.7100   -0.0514   -0.4026 O.3       1 <0>        -0.3011
      3 C2          0.4596   -0.6428   -0.7651 C.ar      1 <0>         0.1465
      4 C3          1.5289    0.1319   -1.1815 C.ar      1 <0>        -0.1254
      5 C4          2.7270   -0.4598   -1.5530 C.ar      1 <0>        -0.0703
      6 C5          2.8709   -1.8283   -1.5140 C.ar      1 <0>        -0.0569
      7 C6          1.7988   -2.6276   -1.0978 C.ar      1 <0>        -0.1361
      8 C7          0.5863   -2.0273   -0.7130 C.ar      1 <0>         0.0793
      9 O2         -0.4473   -2.8001   -0.2969 O.3       1 <0>        -0.1850
     10 C8         -0.5027   -4.0675   -0.7796 C.2       1 <0>         0.5204
     11 N1         -1.6472   -4.6058   -1.1412 N.pl3     1 <0>        -0.5144
     12 C9         -2.8205   -3.9487   -0.8933 C.ar      1 <0>         0.0817
     13 C10        -3.0426   -3.3540    0.3513 C.ar      1 <0>        -0.1103
     14 C11        -4.2284   -2.6929    0.5942 C.ar      1 <0>         0.0047
     15 C12        -5.1970   -2.6178   -0.3912 C.ar      1 <0>        -0.6484
     16 C13        -4.9840   -3.2044   -1.6263 C.ar      1 <0>         0.0059
     17 C14        -3.8006   -3.8639   -1.8853 C.ar      1 <0>        -0.1096
     18 S1         -6.7091   -1.7716   -0.0716 S.o2      1 <0>         2.6972
     19 O3         -7.6729   -2.3104   -0.9660 O.2       1 <0>        -0.9452
     20 O4         -6.8891   -1.7801    1.3379 O.2       1 <0>        -0.9421
     21 N2         -6.4876   -0.1903   -0.5109 N.pl3     1 <0>        -1.2432
     22 C15         0.7613   -4.8231   -0.8867 C.2       1 <0>        -0.2754
     23 C16         1.9242   -4.0864   -1.0546 C.2       1 <0>         0.1800
     24 C17         0.7844   -6.2943   -0.8279 C.2       1 <0>         0.5776
     25 O5          1.8180   -6.8957   -1.0505 O.2       1 <0>        -0.4672
     26 N3         -0.3397   -6.9744   -0.5274 N.am      1 <0>        -0.6750
     27 C18        -0.3009   -8.3661   -0.3959 C.ar      1 <0>         0.1261
     28 C19         0.5420   -9.1184   -1.2042 C.ar      1 <0>        -0.0640
     29 C20         0.5783  -10.4923   -1.0715 C.ar      1 <0>        -0.0910
     30 C21        -0.2237  -11.1197   -0.1355 C.ar      1 <0>        -0.0514
     31 C22        -1.0637  -10.3738    0.6706 C.ar      1 <0>        -0.0261
     32 C23        -1.1006   -8.9986    0.5469 C.ar      1 <0>        -0.0769
     33 N4         -1.9206  -11.0494    1.6708 N.pl3     1 <0>         0.0278
     34 O6         -1.8857  -12.2527    1.7825 O.2       1 <0>        -0.1363
     35 O7         -2.6554  -10.3979    2.3760 O.3       1 <0>        -0.1524
     36 H1         -0.0075    1.8053    0.1700 H         1 <0>         0.0709
     37 H2         -0.5867    1.6890   -1.5091 H         1 <0>         0.0694
     38 H3         -1.7533    1.7160   -0.1650 H         1 <0>         0.1182
     39 H4          1.4290    1.2067   -1.2177 H         1 <0>         0.1663
     40 H5          3.5528    0.1574   -1.8747 H         1 <0>         0.1630
     41 H6          3.8065   -2.2837   -1.8036 H         1 <0>         0.1665
     42 H7         -2.2876   -3.4121    1.1214 H         1 <0>         0.1486
     43 H8         -4.4015   -2.2330    1.5559 H         1 <0>         0.1667
     44 H9         -5.7444   -3.1419   -2.3907 H         1 <0>         0.1678
     45 H10        -3.6338   -4.3171   -2.8513 H         1 <0>         0.1559
     46 H11        -7.2386    0.3341   -0.8302 H         1 <0>         0.4287
     47 H12        -5.6069    0.2115   -0.4489 H         1 <0>         0.4171
     48 H13         2.8862   -4.5700   -1.1394 H         1 <0>         0.2052
     49 H14        -1.1757   -6.4986   -0.4023 H         1 <0>         0.3984
     50 H15         1.1679   -8.6292   -1.9358 H         1 <0>         0.1602
     51 H16         1.2334  -11.0778   -1.6996 H         1 <0>         0.1615
     52 H17        -0.1939  -12.1945   -0.0342 H         1 <0>         0.1643
     53 H18        -1.7537   -8.4162    1.1800 H         1 <0>         0.1570
     54 H19        -1.6589   -5.4690   -1.5837 H         1 <0>         0.4549
@<TRIPOS>BOND
     1    1    2 1
     2    1   36 1
     3    1   37 1
     4    1   38 1
     5    2    3 1
     6    3    8 ar
     7    3    4 ar
     8    4    5 ar
     9    4   39 1
    10    5    6 ar
    11    5   40 1
    12    6    7 ar
    13    6   41 1
    14    7   23 1
    15    7    8 ar
    16    8    9 1
    17    9   10 1
    18   10   11 2
    19   10   22 1
    20   11   12 1
    21   11   54 1
    22   12   17 ar
    23   12   13 ar
    24   13   14 ar
    25   13   42 1
    26   14   15 ar
    27   14   43 1
    28   15   16 ar
    29   15   18 1
    30   16   17 ar
    31   16   44 1
    32   17   45 1
    33   18   19 2
    34   18   20 2
    35   18   21 1
    36   21   46 1
    37   21   47 1
    38   22   23 2
    39   22   24 1
    40   23   48 1
    41   24   25 2
    42   24   26 am
    43   26   27 1
    44   26   49 1
    45   27   32 ar
    46   27   28 ar
    47   28   29 ar
    48   28   50 1
    49   29   30 ar
    50   29   51 1
    51   30   31 ar
    52   30   52 1
    53   31   32 ar
    54   31   33 1
    55   32   53 1
    56   33   34 2
    57   33   35 1
@<TRIPOS>MOLECULE
ZINC00921397
   42    45     0     0     0
SMALL
USER_CHARGES
[4-(difluoromethoxy)phenyl]BLAHtrione
@<TRIPOS>ATOM
      1 C1         -2.0253    4.6365    2.1764 C.ar      1 <0>        -0.0735
      2 C2         -2.3020    5.9826    2.0355 C.ar      1 <0>        -0.1931
      3 C3         -3.6148    6.4286    2.0850 C.ar      1 <0>         0.1013
      4 C4         -4.6470    5.5202    2.2699 C.ar      1 <0>        -0.1329
      5 C5         -4.3655    4.1745    2.4042 C.ar      1 <0>        -0.0523
      6 C6         -3.0563    3.7326    2.3549 C.ar      1 <0>        -0.0898
      7 C7         -2.7520    2.2640    2.5021 C.3       1 <0>         0.1020
      8 H1         -3.6871    1.7169    2.6215 H         1 <0>         0.1033
      9 C8         -1.9028    2.0579    3.7220 C.2       1 <0>        -0.2979
     10 C9         -0.5628    1.8383    3.6129 C.2       1 <0>         0.4378
     11 N1          0.1900    1.6590    4.7483 N.am      1 <0>        -0.6474
     12 H2          1.1742    1.4990    4.6726 H         1 <0>         0.4413
     13 C10        -0.3908    1.6977    5.9618 C.2       1 <0>         0.7165
     14 O1          0.2896    1.5390    6.9569 O.2       1 <0>        -0.5320
     15 N2         -1.7132    1.9100    6.0898 N.am      1 <0>        -0.6632
     16 H3         -2.1254    1.9344    7.0006 H         1 <0>         0.4421
     17 C11        -2.4871    2.0901    5.0015 C.2       1 <0>         0.5675
     18 O2         -3.6847    2.2809    5.1247 O.2       1 <0>        -0.4991
     19 N3          0.0299    1.7963    2.3760 N.pl3     1 <0>        -0.6385
     20 C12        -0.7177    1.5718    1.2504 C.2       1 <0>         0.2105
     21 C13        -2.0507    1.7779    1.2592 C.2       1 <0>        -0.2495
     22 C14        -2.8264    1.5477    0.1091 C.2       1 <0>         0.3992
     23 O3         -4.0277    1.7247    0.1548 O.2       1 <0>        -0.4532
     24 C15        -2.1968    1.0859   -1.1767 C.3       1 <0>        -0.1593
     25 C16        -0.7516    1.5921   -1.2329 C.3       1 <0>        -0.1134
     26 C17        -0.0127    1.0858    0.0080 C.3       1 <0>        -0.0939
     27 O4         -3.8891    7.7530    1.9531 O.3       1 <0>        -0.3204
     28 C18        -2.7769    8.6304    1.7657 C.3       1 <0>         0.4115
     29 F1         -1.9154    8.5325    2.8636 F         1 <0>        -0.1994
     30 F2         -2.0905    8.2709    0.6008 F         1 <0>        -0.1993
     31 H4         -1.0032    4.2894    2.1430 H         1 <0>         0.1145
     32 H5         -1.4968    6.6877    1.8913 H         1 <0>         0.1297
     33 H6         -5.6698    5.8649    2.3085 H         1 <0>         0.1348
     34 H7         -5.1687    3.4670    2.5481 H         1 <0>         0.1361
     35 H8          0.9879    1.9271    2.2980 H         1 <0>         0.4215
     36 H9         -2.7139    1.4508   -1.9509 H         1 <0>         0.0894
     37 H10        -2.2037   -0.0033   -1.2157 H         1 <0>         0.1025
     38 H11        -0.7453    2.6821   -1.2438 H         1 <0>         0.0779
     39 H12        -0.2623    1.2140   -2.1305 H         1 <0>         0.0904
     40 H13         0.0021   -0.0041    0.0020 H         1 <0>         0.1048
     41 H14         1.0101    1.4626    0.0003 H         1 <0>         0.0921
     42 H15        -3.1345    9.6561    1.6747 H         1 <0>         0.1818
@<TRIPOS>BOND
     1    1    6 ar
     2    1    2 ar
     3    1   31 1
     4    2    3 ar
     5    2   32 1
     6    3    4 ar
     7    3   27 1
     8    4    5 ar
     9    4   33 1
    10    5    6 ar
    11    5   34 1
    12    6    7 1
    13    7    8 1
    14    7   21 1
    15    7    9 1
    16    9   17 1
    17    9   10 2
    18   10   11 1
    19   10   19 1
    20   11   12 1
    21   11   13 am
    22   13   14 2
    23   13   15 am
    24   15   16 1
    25   15   17 am
    26   17   18 2
    27   19   20 1
    28   19   35 1
    29   20   26 1
    30   20   21 2
    31   21   22 1
    32   22   23 2
    33   22   24 1
    34   24   25 1
    35   24   36 1
    36   24   37 1
    37   25   26 1
    38   25   38 1
    39   25   39 1
    40   26   40 1
    41   26   41 1
    42   27   28 1
    43   28   29 1
    44   28   30 1
    45   28   42 1
@<TRIPOS>MOLECULE
ZINC16399223
   29    31     0     0     0
SMALL
USER_CHARGES
8-[N'-[(3-iodophenyl)methylene]hydrazino]-1,9-dihydropurin-6-one
@<TRIPOS>ATOM
      1 C1         -0.8099    3.0314   -1.7234 C.ar      1 <0>        -0.1067
      2 C2          0.2734    3.7654   -1.2866 C.ar      1 <0>        -0.1157
      3 C3          1.2551    3.1561   -0.5016 C.ar      1 <0>        -0.0921
      4 C4          1.1321    1.8059   -0.1642 C.ar      1 <0>        -0.0550
      5 C5          0.0433    1.0840   -0.6080 C.ar      1 <0>        -0.0975
      6 C6         -0.9284    1.6961   -1.3813 C.ar      1 <0>        -0.0730
      7 I1         -0.1441   -0.9408   -0.1039 I         1 <0>        -0.0290
      8 C7          2.4156    3.9344   -0.0307 C.2       1 <0>         0.0974
      9 N1          2.3956    5.2310   -0.0921 N.2       1 <0>        -0.1827
     10 N2          1.1726    5.9143   -0.0770 N.pl3     1 <0>        -0.5513
     11 C8          1.1423    7.2809   -0.2776 C.2       1 <0>         0.5105
     12 N3          0.0126    8.0524   -0.2845 N.pl3     1 <0>        -0.5731
     13 H1         -0.9243    7.7309   -0.1474 H         1 <0>         0.4344
     14 C9          0.4006    9.3478   -0.5140 C.2       1 <0>         0.2495
     15 C10         1.7919    9.3228   -0.6429 C.2       1 <0>        -0.0737
     16 N4          2.1916    8.0377   -0.4848 N.2       1 <0>        -0.4323
     17 C11         2.4685   10.5429   -0.8882 C.2       1 <0>         0.5708
     18 O1          3.6815   10.5730   -1.0084 O.2       1 <0>        -0.5055
     19 N5          1.7331   11.6727   -0.9864 N.am      1 <0>        -0.6412
     20 H2          2.1724   12.5211   -1.1544 H         1 <0>         0.4277
     21 C12         0.3835   11.6270   -0.8510 C.2       1 <0>         0.3847
     22 N6         -0.2535   10.5121   -0.6246 N.2       1 <0>        -0.5138
     23 H3         -1.5697    3.5014   -2.3301 H         1 <0>         0.1367
     24 H4          0.3621    4.8088   -1.5508 H         1 <0>         0.1344
     25 H5          1.8876    1.3284    0.4421 H         1 <0>         0.1410
     26 H6         -1.7809    1.1276   -1.7224 H         1 <0>         0.1347
     27 H7          3.2822    3.4259    0.3652 H         1 <0>         0.1963
     28 H8          0.3472    5.4278    0.0744 H         1 <0>         0.4047
     29 H9         -0.1812   12.5439   -0.9330 H         1 <0>         0.2198
@<TRIPOS>BOND
     1    1    6 ar
     2    1    2 ar
     3    1   23 1
     4    2    3 ar
     5    2   24 1
     6    3    4 ar
     7    3    8 1
     8    4    5 ar
     9    4   25 1
    10    5    6 ar
    11    5    7 1
    12    6   26 1
    13    8    9 2
    14    8   27 1
    15    9   10 1
    16   10   11 1
    17   10   28 1
    18   11   16 2
    19   11   12 1
    20   12   13 1
    21   12   14 1
    22   14   22 1
    23   14   15 2
    24   15   16 1
    25   15   17 1
    26   17   18 2
    27   17   19 am
    28   19   20 1
    29   19   21 1
    30   21   22 2
    31   21   29 1
@<TRIPOS>MOLECULE
ZINC04245692
   57    61     0     0     0
SMALL
USER_CHARGES

@<TRIPOS>ATOM
      1 C1          0.9569    1.7636    0.2918 C.3       1 <0>         0.0275
      2 O1          0.8865    0.3382    0.2191 O.3       1 <0>        -0.3193
      3 C2          1.3916   -0.3592    1.2710 C.ar      1 <0>         0.1466
      4 C3          1.9340    0.3395    2.3430 C.ar      1 <0>        -0.2248
      5 C4          2.4610   -0.2997    3.4369 C.ar      1 <0>        -0.0308
      6 C5          2.4295   -1.6981    3.4313 C.ar      1 <0>        -0.1198
      7 C6          1.8776   -2.4186    2.3400 C.ar      1 <0>         0.1368
      8 C7          1.3441   -1.7466    1.2427 C.ar      1 <0>        -0.1682
      9 N1          1.9933   -3.7488    2.6290 N.pl3     1 <0>        -0.5662
     10 H1          1.6976   -4.4723    2.0546 H         1 <0>         0.4195
     11 C8          2.5893   -3.9068    3.8513 C.2       1 <0>         0.0907
     12 C9          2.8750   -2.6941    4.3802 C.2       1 <0>        -0.1994
     13 C10         3.5367   -2.5110    5.7229 C.3       1 <0>        -0.0587
     14 C11         3.4575   -3.8457    6.4783 C.3       1 <0>         0.0093
     15 N2          3.9093   -4.9307    5.6016 N.4       1 <0>        -0.3422
     16 C12         2.9075   -5.1986    4.5607 C.3       1 <0>        -0.1207
     17 H2          2.0017   -5.5937    5.0207 H         1 <0>         0.3142
     18 C13         3.4663   -6.2207    3.5697 C.3       1 <0>        -0.1168
     19 C14         3.7670   -7.5232    4.3230 C.3       1 <0>        -0.0648
     20 H3          4.2038   -8.2499    3.6381 H         1 <0>         0.0945
     21 C15         4.7524   -7.2271    5.4553 C.3       1 <0>        -0.0787
     22 H4          5.6914   -6.8712    5.0313 H         1 <0>         0.0612
     23 C16         4.1472   -6.1518    6.3798 C.3       1 <0>        -0.2177
     24 C17         5.0138   -8.4950    6.2660 C.3       1 <0>        -0.1232
     25 C18         3.6985   -9.0149    6.8494 C.3       1 <0>         0.0256
     26 H5          3.8886   -9.9210    7.4246 H         1 <0>         0.0458
     27 C19         2.7281   -9.3282    5.7083 C.3       1 <0>         0.1143
     28 H6          1.7922   -9.7059    6.1202 H         1 <0>         0.0696
     29 C20         2.4602   -8.0771    4.8958 C.3       1 <0>        -0.1508
     30 H7          1.7719   -8.2991    4.0802 H         1 <0>         0.0956
     31 C21         1.8393   -7.0528    5.8103 C.2       1 <0>         0.4891
     32 O2          1.0417   -6.2440    5.3674 O.co2     1 <0>        -0.5715
     33 O3          2.1346   -7.0329    6.9930 O.co2     1 <0>        -0.4504
     34 O4          3.3039  -10.3151    4.8502 O.3       1 <0>        -0.3795
     35 C22         2.9953  -11.6600    5.2218 C.3       1 <0>         0.0276
     36 O5          3.1284   -8.0196    7.7018 O.3       1 <0>        -0.4008
     37 H8          1.9991    2.0721    0.3744 H         1 <0>         0.0557
     38 H9          0.5205    2.1954   -0.6089 H         1 <0>         0.1003
     39 H10         0.4050    2.1106    1.1653 H         1 <0>         0.0566
     40 H11         1.9414    1.4191    2.3140 H         1 <0>         0.1273
     41 H12         2.8814    0.2520    4.2648 H         1 <0>         0.1330
     42 H13         0.9169   -2.2802    0.4065 H         1 <0>         0.1369
     43 H14         4.5801   -2.2279    5.5837 H         1 <0>         0.0813
     44 H15         3.0166   -1.7370    6.2873 H         1 <0>         0.1054
     45 H16         4.0956   -3.8021    7.3609 H         1 <0>         0.1171
     46 H17         2.4275   -4.0300    6.7833 H         1 <0>         0.1310
     47 H18         2.7310   -6.4118    2.7880 H         1 <0>         0.0911
     48 H19         4.3838   -5.8351    3.1253 H         1 <0>         0.0623
     49 H20         4.8446   -5.9374    7.1896 H         1 <0>         0.0887
     50 H21         3.2045   -6.5084    6.7949 H         1 <0>         0.3132
     51 H22         5.4491   -9.2561    5.6185 H         1 <0>         0.0766
     52 H23         5.7065   -8.2706    7.0770 H         1 <0>         0.0636
     53 H24         3.4690  -12.3482    4.5218 H         1 <0>         0.0859
     54 H25         3.3664  -11.8530    6.2284 H         1 <0>         0.0416
     55 H26         1.9152  -11.8046    5.1988 H         1 <0>         0.0433
     56 H27         3.6919   -7.7702    8.4469 H         1 <0>         0.2550
     57 H28         4.7701   -4.6541    5.1538 H         1 <0>         0.3703
@<TRIPOS>BOND
     1    1    2 1
     2    1   37 1
     3    1   38 1
     4    1   39 1
     5    2    3 1
     6    3    8 ar
     7    3    4 ar
     8    4    5 ar
     9    4   40 1
    10    5    6 ar
    11    5   41 1
    12    6   12 1
    13    6    7 ar
    14    7    8 ar
    15    7    9 1
    16    8   42 1
    17    9   10 1
    18    9   11 1
    19   11   16 1
    20   11   12 2
    21   12   13 1
    22   13   14 1
    23   13   43 1
    24   13   44 1
    25   14   15 1
    26   14   45 1
    27   14   46 1
    28   15   23 1
    29   15   16 1
    30   15   57 1
    31   16   17 1
    32   16   18 1
    33   18   19 1
    34   18   47 1
    35   18   48 1
    36   19   20 1
    37   19   29 1
    38   19   21 1
    39   21   22 1
    40   21   23 1
    41   21   24 1
    42   23   49 1
    43   23   50 1
    44   24   25 1
    45   24   51 1
    46   24   52 1
    47   25   26 1
    48   25   27 1
    49   25   36 1
    50   27   28 1
    51   27   29 1
    52   27   34 1
    53   29   30 1
    54   29   31 1
    55   31   32 2
    56   31   33 1
    57   34   35 1
    58   35   53 1
    59   35   54 1
    60   35   55 1
    61   36   56 1
@<TRIPOS>MOLECULE
ZINC54071501
   51    53     0     0     0
SMALL
USER_CHARGES

@<TRIPOS>ATOM
      1 C1         -0.0187    1.5258    0.0104 C.3       1 <0>        -0.1605
      2 C2          0.0021   -0.0041    0.0020 C.3       1 <0>         0.2023
      3 H1          0.5293   -0.3651    0.8851 H         1 <0>         0.1010
      4 C3          0.7074   -0.4901   -1.2379 C.ar      1 <0>        -0.0960
      5 C4          0.0397   -0.5226   -2.4481 C.ar      1 <0>        -0.1195
      6 C5          0.6912   -0.9715   -3.5779 C.ar      1 <0>        -0.1144
      7 C6          2.0140   -1.3902   -3.5106 C.ar      1 <0>        -0.0719
      8 C7          2.6805   -1.3531   -2.3066 C.ar      1 <0>        -0.0675
      9 C8          2.0232   -0.8987   -1.1703 C.ar      1 <0>        -0.1046
     10 C9          4.1190   -1.7761   -2.1628 C.3       1 <0>        -0.0843
     11 C10         4.5512   -2.6251   -3.3566 C.3       1 <0>        -0.1211
     12 C11         4.1826   -1.8756   -4.6424 C.3       1 <0>        -0.1216
     13 C12         2.6616   -1.8758   -4.7810 C.3       1 <0>        -0.0832
     14 N1         -1.3723   -0.5112    0.0124 N.am      1 <0>        -0.7371
     15 C13        -2.0286   -0.6552    1.1807 C.2       1 <0>         0.7152
     16 O1         -1.4800   -0.3643    2.2261 O.2       1 <0>        -0.5626
     17 N2         -3.2931   -1.1217    1.1903 N.am      1 <0>        -0.5318
     18 N3         -3.9252   -1.4569   -0.0142 N.am      1 <0>        -0.5280
     19 C14        -5.1896   -1.9234   -0.0047 C.2       1 <0>         0.5269
     20 O2         -5.7802   -2.0530    1.0467 O.2       1 <0>        -0.5132
     21 C15        -5.8695   -2.2839   -1.3003 C.3       1 <0>        -0.1030
     22 H2         -5.9064   -1.4065   -1.9459 H         1 <0>         0.1300
     23 C16        -5.0759   -3.3997   -2.0001 C.3       1 <0>        -0.1298
     24 C17        -5.9510   -3.9654   -3.1549 C.3       1 <0>        -0.5748
     25 S1         -7.6034   -3.9986   -2.3405 S.o2      1 <0>         2.3741
     26 O3         -7.8034   -5.2766   -1.7524 O.2       1 <0>        -0.9269
     27 O4         -8.5737   -3.4843   -3.2423 O.2       1 <0>        -0.9310
     28 C18        -7.3104   -2.7671   -1.0073 C.3       1 <0>        -0.5700
     29 H3          1.0039    1.9031    0.0027 H         1 <0>         0.0714
     30 H4         -0.5459    1.8868   -0.8726 H         1 <0>         0.0591
     31 H5         -0.5289    1.8773    0.9072 H         1 <0>         0.0676
     32 H6         -0.9886   -0.1979   -2.5086 H         1 <0>         0.1165
     33 H7          0.1685   -0.9981   -4.5226 H         1 <0>         0.1232
     34 H8          2.5451   -0.8696   -0.2253 H         1 <0>         0.1249
     35 H9          4.7503   -0.8894   -2.1050 H         1 <0>         0.0783
     36 H10         4.2328   -2.3579   -1.2481 H         1 <0>         0.0762
     37 H11         5.6287   -2.7859   -3.3216 H         1 <0>         0.0696
     38 H12         4.0353   -3.5849   -3.3305 H         1 <0>         0.0658
     39 H13         4.5459   -0.8494   -4.5861 H         1 <0>         0.0662
     40 H14         4.6296   -2.3772   -5.5007 H         1 <0>         0.0693
     41 H15         2.3202   -2.8889   -4.9939 H         1 <0>         0.0769
     42 H16         2.3755   -1.2204   -5.6035 H         1 <0>         0.0753
     43 H17        -1.8100   -0.7432   -0.8215 H         1 <0>         0.3892
     44 H18        -3.7654   -1.2254    2.0312 H         1 <0>         0.4456
     45 H19        -3.4528   -1.3532   -0.8551 H         1 <0>         0.4195
     46 H20        -4.1491   -2.9936   -2.4055 H         1 <0>         0.1075
     47 H21        -4.8492   -4.1927   -1.2875 H         1 <0>         0.0996
     48 H22        -5.9489   -3.2961   -4.0152 H         1 <0>         0.1450
     49 H23        -5.6306   -4.9682   -3.4374 H         1 <0>         0.1480
     50 H24        -7.3681   -3.2384   -0.0261 H         1 <0>         0.1580
     51 H25        -8.0179   -1.9413   -1.0828 H         1 <0>         0.1504
@<TRIPOS>BOND
     1    1    2 1
     2    1   29 1
     3    1   30 1
     4    1   31 1
     5    2    3 1
     6    2    4 1
     7    2   14 1
     8    4    9 ar
     9    4    5 ar
    10    5    6 ar
    11    5   32 1
    12    6    7 ar
    13    6   33 1
    14    7   13 1
    15    7    8 ar
    16    8    9 ar
    17    8   10 1
    18    9   34 1
    19   10   11 1
    20   10   35 1
    21   10   36 1
    22   11   12 1
    23   11   37 1
    24   11   38 1
    25   12   13 1
    26   12   39 1
    27   12   40 1
    28   13   41 1
    29   13   42 1
    30   14   15 am
    31   14   43 1
    32   15   16 2
    33   15   17 am
    34   17   18 1
    35   17   44 1
    36   18   19 am
    37   18   45 1
    38   19   20 2
    39   19   21 1
    40   21   22 1
    41   21   28 1
    42   21   23 1
    43   23   24 1
    44   23   46 1
    45   23   47 1
    46   24   25 1
    47   24   48 1
    48   24   49 1
    49   25   26 2
    50   25   27 2
    51   25   28 1
    52   28   50 1
    53   28   51 1
@<TRIPOS>MOLECULE
ZINC63351318
   48    52     0     0     0
SMALL
USER_CHARGES

@<TRIPOS>ATOM
      1 C1          0.7491    2.6687    0.5921 C.ar      1 <0>        -0.1822
      2 C2          2.1031    3.0208    0.5055 C.ar      1 <0>         0.0506
      3 C3          3.0779    2.1133    0.2868 C.ar      1 <0>        -0.2165
      4 C4          2.7607    0.7368    0.1333 C.ar      1 <0>         0.3227
      5 N1          3.5204   -0.3186   -0.0592 N.pl3     1 <0>        -0.5929
      6 C5          2.6580   -1.4818   -0.2390 C.3       1 <0>         0.0523
      7 H1          2.7172   -1.8460   -1.2647 H         1 <0>         0.1623
      8 C6          2.9739   -2.6081    0.7489 C.3       1 <0>         0.1281
      9 H2          3.9161   -3.0831    0.4753 H         1 <0>         0.1305
     10 N2          1.8849   -3.5958    0.6887 N.3       1 <0>        -0.6535
     11 C7          0.6077   -3.0792    1.1893 C.3       1 <0>        -0.1169
     12 C8          0.0996   -1.9499    0.2738 C.3       1 <0>        -0.1095
     13 C9          1.2527   -0.9918    0.0736 C.2       1 <0>         0.1139
     14 C10         1.3349    0.3350    0.2301 C.ar      1 <0>        -0.1567
     15 C11         0.3378    1.3874    0.4650 C.ar      1 <0>         0.0332
     16 C12         3.0763   -2.0381    2.1650 C.3       1 <0>        -0.1775
     17 H3          3.5616   -1.0626    2.1319 H         1 <0>         0.0962
     18 C13         3.8968   -2.9912    3.0451 C.3       1 <0>         0.3507
     19 H4          4.1447   -2.5032    3.9877 H         1 <0>         0.0712
     20 N3          3.0695   -4.1823    3.3014 N.pl3     1 <0>        -0.6176
     21 C14         1.7962   -3.9901    3.7545 C.2       1 <0>         0.6677
     22 O1          1.1914   -4.9479    4.4814 O.3       1 <0>        -0.6313
     23 N4          1.1561   -2.8679    3.4826 N.2       1 <0>        -0.6895
     24 C15         1.6958   -1.8957    2.7532 C.2       1 <0>         0.5455
     25 O2          1.0676   -0.8739    2.5576 O.2       1 <0>        -0.5612
     26 C16         3.5730   -5.4709    3.0875 C.ar      1 <0>         0.1690
     27 C17         3.3327   -6.1203    1.8839 C.ar      1 <0>        -0.0772
     28 C18         3.8303   -7.3916    1.6749 C.ar      1 <0>        -0.1531
     29 C19         4.5680   -8.0188    2.6648 C.ar      1 <0>         0.0925
     30 C20         4.8084   -7.3731    3.8661 C.ar      1 <0>        -0.1483
     31 C21         4.3182   -6.0992    4.0765 C.ar      1 <0>        -0.0929
     32 F1          5.0536   -9.2625    2.4586 F         1 <0>        -0.1427
     33 O3          5.0953   -3.3688    2.3647 O.3       1 <0>        -0.5571
     34 H5          0.0154    3.4411    0.7695 H         1 <0>         0.1485
     35 H6          2.3771    4.0594    0.6179 H         1 <0>         0.1510
     36 H7          4.1069    2.4359    0.2275 H         1 <0>         0.1506
     37 H8          1.7842   -3.9667   -0.2443 H         1 <0>         0.3410
     38 H9         -0.1255   -3.8855    1.2098 H         1 <0>         0.0985
     39 H10         0.7450   -2.6920    2.1989 H         1 <0>         0.2586
     40 H11        -0.2008   -2.3571   -0.6916 H         1 <0>         0.0955
     41 H12        -0.7398   -1.4366    0.7428 H         1 <0>         0.1126
     42 H13        -0.7112    1.1406    0.5358 H         1 <0>         0.1526
     43 H14         2.7568   -5.6318    1.1118 H         1 <0>         0.1466
     44 H15         3.6437   -7.8970    0.7389 H         1 <0>         0.1327
     45 H16         5.3837   -7.8641    4.6370 H         1 <0>         0.1347
     46 H17         4.5100   -5.5940    5.0117 H         1 <0>         0.1293
     47 H18         5.6941   -3.9123    2.8950 H         1 <0>         0.3908
     48 H19         4.4902   -0.3233   -0.0785 H         1 <0>         0.4470
@<TRIPOS>BOND
     1    1   15 ar
     2    1    2 ar
     3    1   34 1
     4    2    3 ar
     5    2   35 1
     6    3    4 ar
     7    3   36 1
     8    4   14 ar
     9    4    5 2
    10    5    6 1
    11    5   48 1
    12    6    7 1
    13    6   13 1
    14    6    8 1
    15    8    9 1
    16    8   10 1
    17    8   16 1
    18   10   11 1
    19   10   37 1
    20   11   12 1
    21   11   38 1
    22   11   39 1
    23   12   13 1
    24   12   40 1
    25   12   41 1
    26   13   14 2
    27   14   15 ar
    28   15   42 1
    29   16   17 1
    30   16   24 1
    31   16   18 1
    32   18   19 1
    33   18   20 1
    34   18   33 1
    35   20   21 1
    36   20   26 1
    37   21   22 1
    38   21   23 2
    39   23   24 1
    40   24   25 2
    41   26   31 ar
    42   26   27 ar
    43   27   28 ar
    44   27   43 1
    45   28   29 ar
    46   28   44 1
    47   29   30 ar
    48   29   32 1
    49   30   31 ar
    50   30   45 1
    51   31   46 1
    52   33   47 1
@<TRIPOS>MOLECULE
ZINC67324911
   47    49     0     0     0
SMALL
USER_CHARGES

@<TRIPOS>ATOM
      1 C1         -1.7219    0.9034    0.9677 C.3       1 <0>         0.0525
      2 O1         -1.5614   -0.5133    1.0636 O.3       1 <0>        -0.3593
      3 C2         -0.4680   -0.9625    1.7084 C.2       1 <0>         0.6511
      4 O2          0.3282   -0.1730    2.1769 O.2       1 <0>        -0.5512
      5 N1         -0.2566   -2.2876    1.8342 N.am      1 <0>        -0.6459
      6 C3          0.9266   -2.7556    2.4199 C.ar      1 <0>         0.1481
      7 C4          1.5158   -2.0470    3.4567 C.ar      1 <0>        -0.1290
      8 C5          2.6875   -2.5137    4.0348 C.ar      1 <0>         0.1829
      9 C6          3.2681   -3.6885    3.5747 C.ar      1 <0>        -0.1115
     10 C7          2.6804   -4.3932    2.5414 C.ar      1 <0>        -0.1090
     11 C8          1.5091   -3.9341    1.9665 C.ar      1 <0>         0.0568
     12 F1          0.9337   -4.6280    0.9602 F         1 <0>        -0.1360
     13 N2          3.2849   -1.8002    5.0815 N.am      1 <0>        -0.6807
     14 C9          4.0593   -2.4419    5.9787 C.2       1 <0>         0.7066
     15 O3          4.1516   -3.6539    5.9454 O.2       1 <0>        -0.5700
     16 N3          4.7313   -1.7403    6.9128 N.am      1 <0>        -0.7249
     17 C10         5.5730   -2.4378    7.8880 C.3       1 <0>         0.2113
     18 H1          6.0998   -3.2562    7.3972 H         1 <0>         0.0997
     19 C11         4.7010   -2.9919    9.0145 C.3       1 <0>        -0.1325
     20 C12         3.5572   -2.0407    9.3322 C.3       1 <0>        -0.1497
     21 C13         4.0125   -0.7359    9.9516 C.3       1 <0>         0.0668
     22 O4          4.7987    0.0211    9.0247 O.3       1 <0>        -0.3294
     23 C14         6.1273   -0.2707    9.0054 C.ar      1 <0>         0.1030
     24 C15         6.5785   -1.4672    8.4790 C.ar      1 <0>        -0.1289
     25 C16         7.9214   -1.7811    8.4860 C.ar      1 <0>        -0.0871
     26 C17         8.8323   -0.8787    9.0082 C.ar      1 <0>        -0.1242
     27 C18         8.3947    0.3299    9.5173 C.ar      1 <0>        -0.0996
     28 C19         7.0402    0.6396    9.5231 C.ar      1 <0>        -0.1315
     29 H2         -0.8719    1.3301    0.4352 H         1 <0>         0.0645
     30 H3         -2.6405    1.1292    0.4261 H         1 <0>         0.1082
     31 H4         -1.7757    1.3315    1.9687 H         1 <0>         0.0642
     32 H5         -0.9239   -2.9172    1.5192 H         1 <0>         0.4228
     33 H6          1.0633   -1.1334    3.8131 H         1 <0>         0.1541
     34 H7          4.1802   -4.0516    4.0248 H         1 <0>         0.1584
     35 H8          3.1341   -5.3061    2.1850 H         1 <0>         0.1467
     36 H9          3.1413   -0.8442    5.1607 H         1 <0>         0.4113
     37 H10         4.6576   -0.7735    6.9393 H         1 <0>         0.4055
     38 H11         4.2920   -3.9554    8.7103 H         1 <0>         0.0815
     39 H12         5.3121   -3.1284    9.9067 H         1 <0>         0.0731
     40 H13         3.0196   -1.8207    8.4099 H         1 <0>         0.0723
     41 H14         2.8735   -2.5350   10.0223 H         1 <0>         0.0768
     42 H15         3.1386   -0.1522   10.2408 H         1 <0>         0.0999
     43 H16         4.6098   -0.9490   10.8381 H         1 <0>         0.0591
     44 H17         8.2605   -2.7256    8.0869 H         1 <0>         0.1316
     45 H18         9.8852   -1.1190    9.0182 H         1 <0>         0.1295
     46 H19         9.1083    1.0349    9.9173 H         1 <0>         0.1296
     47 H20         6.6983    1.5830    9.9225 H         1 <0>         0.1326
@<TRIPOS>BOND
     1    1    2 1
     2    1   29 1
     3    1   30 1
     4    1   31 1
     5    2    3 1
     6    3    4 2
     7    3    5 am
     8    5    6 1
     9    5   32 1
    10    6   11 ar
    11    6    7 ar
    12    7    8 ar
    13    7   33 1
    14    8    9 ar
    15    8   13 1
    16    9   10 ar
    17    9   34 1
    18   10   11 ar
    19   10   35 1
    20   11   12 1
    21   13   14 am
    22   13   36 1
    23   14   15 2
    24   14   16 am
    25   16   17 1
    26   16   37 1
    27   17   18 1
    28   17   24 1
    29   17   19 1
    30   19   20 1
    31   19   38 1
    32   19   39 1
    33   20   21 1
    34   20   40 1
    35   20   41 1
    36   21   22 1
    37   21   42 1
    38   21   43 1
    39   22   23 1
    40   23   28 ar
    41   23   24 ar
    42   24   25 ar
    43   25   26 ar
    44   25   44 1
    45   26   27 ar
    46   26   45 1
    47   27   28 ar
    48   27   46 1
    49   28   47 1
@<TRIPOS>MOLECULE
ZINC09354790
   58    61     0     0     0
SMALL
USER_CHARGES
N-[4-(3,4-dimethoxyphenyl)thiazol-2-yl]-2-(p-tolylsulfonylamino)benzamide
@<TRIPOS>ATOM
      1 C1          3.1377   14.4895    7.7900 C.3       1 <0>        -0.1270
      2 C2          1.8994   14.6918    6.9553 C.ar      1 <0>        -0.0229
      3 C3          1.9854   14.6750    5.5758 C.ar      1 <0>        -0.1422
      4 C4          0.8495   14.8606    4.8101 C.ar      1 <0>        -0.0084
      5 C5         -0.3725   15.0620    5.4240 C.ar      1 <0>        -0.6841
      6 C6         -0.4578   15.0836    6.8036 C.ar      1 <0>        -0.0129
      7 C7          0.6774   14.8936    7.5692 C.ar      1 <0>        -0.1421
      8 S1         -1.8204   15.2985    4.4481 S.o2      1 <0>         2.6871
      9 O1         -1.3844   15.7836    3.1856 O.2       1 <0>        -0.9405
     10 O2         -2.7453   16.0096    5.2593 O.2       1 <0>        -0.9470
     11 N1         -2.4790   13.8032    4.1788 N.pl3     1 <0>        -1.0426
     12 C8         -2.8906   13.0225    5.2511 C.ar      1 <0>         0.2345
     13 C9         -3.4552   13.6178    6.3725 C.ar      1 <0>        -0.1881
     14 C10        -3.8585   12.8405    7.4385 C.ar      1 <0>        -0.0462
     15 C11        -3.7098   11.4629    7.3988 C.ar      1 <0>        -0.1408
     16 C12        -3.1572   10.8540    6.2937 C.ar      1 <0>        -0.0564
     17 C13        -2.7435   11.6273    5.2055 C.ar      1 <0>        -0.1691
     18 C14        -2.1510   10.9824    4.0201 C.2       1 <0>         0.5721
     19 O3         -1.7924   11.6589    3.0753 O.2       1 <0>        -0.4988
     20 N2         -2.0066    9.6429    3.9831 N.am      1 <0>        -0.6037
     21 C15        -1.4484    9.0353    2.8663 C.2       1 <0>         0.3132
     22 N3         -1.2280    7.7543    2.6347 N.2       1 <0>        -0.5307
     23 C16        -0.6758    7.3455    1.5023 C.2       1 <0>         0.1231
     24 C17        -0.3377    8.2662    0.5501 C.2       1 <0>        -0.2381
     25 S2         -0.8442    9.7791    1.3575 S.3       1 <0>         0.1263
     26 C18        -0.4320    5.9014    1.2670 C.ar      1 <0>        -0.0237
     27 C19         0.1446    5.4765    0.0713 C.ar      1 <0>        -0.0972
     28 C20         0.3764    4.1331   -0.1446 C.ar      1 <0>        -0.1730
     29 C21         0.0270    3.2026    0.8220 C.ar      1 <0>         0.1072
     30 C22        -0.5493    3.6211    2.0183 C.ar      1 <0>         0.0961
     31 C23        -0.7787    4.9672    2.2414 C.ar      1 <0>        -0.1395
     32 O4         -0.8869    2.7072    2.9670 O.3       1 <0>        -0.3057
     33 C24        -1.4740    3.2074    4.1700 C.3       1 <0>         0.0263
     34 O5          0.2527    1.8793    0.6035 O.3       1 <0>        -0.3052
     35 C25         0.8468    1.5201   -0.6455 C.3       1 <0>         0.0247
     36 H1          3.6032   15.4547    7.9894 H         1 <0>         0.0817
     37 H2          2.8666   14.0151    8.7332 H         1 <0>         0.0740
     38 H3          3.8389   13.8522    7.2512 H         1 <0>         0.0738
     39 H4          2.9401   14.5173    5.0961 H         1 <0>         0.1346
     40 H5          0.9168   14.8479    3.7323 H         1 <0>         0.1417
     41 H6         -1.4118   15.2453    7.2832 H         1 <0>         0.1408
     42 H7          0.6101   14.9064    8.6471 H         1 <0>         0.1347
     43 H8         -2.5773   13.4726    3.2722 H         1 <0>         0.4403
     44 H9         -3.5742   14.6905    6.4115 H         1 <0>         0.1727
     45 H10        -4.2926   13.3083    8.3098 H         1 <0>         0.1415
     46 H11        -4.0286   10.8638    8.2389 H         1 <0>         0.1382
     47 H12        -3.0434    9.7803    6.2683 H         1 <0>         0.1325
     48 H13        -2.2927    9.1032    4.7367 H         1 <0>         0.4264
     49 H14         0.1109    8.1201   -0.4214 H         1 <0>         0.2004
     50 H15         0.4139    6.1991   -0.6849 H         1 <0>         0.1312
     51 H16         0.8270    3.8058   -1.0699 H         1 <0>         0.1401
     52 H17        -1.2253    5.2934    3.1691 H         1 <0>         0.1457
     53 H18        -2.3967    3.7364    3.9313 H         1 <0>         0.0552
     54 H19        -1.6945    2.3762    4.8397 H         1 <0>         0.1011
     55 H20        -0.7786    3.8914    4.6565 H         1 <0>         0.0550
     56 H21         0.9715    0.4382   -0.6907 H         1 <0>         0.1016
     57 H22         1.8201    2.0022   -0.7369 H         1 <0>         0.0560
     58 H23         0.2019    1.8459   -1.4617 H         1 <0>         0.0561
@<TRIPOS>BOND
     1    1    2 1
     2    1   36 1
     3    1   37 1
     4    1   38 1
     5    2    7 ar
     6    2    3 ar
     7    3    4 ar
     8    3   39 1
     9    4    5 ar
    10    4   40 1
    11    5    6 ar
    12    5    8 1
    13    6    7 ar
    14    6   41 1
    15    7   42 1
    16    8    9 2
    17    8   10 2
    18    8   11 1
    19   11   12 1
    20   11   43 1
    21   12   17 ar
    22   12   13 ar
    23   13   14 ar
    24   13   44 1
    25   14   15 ar
    26   14   45 1
    27   15   16 ar
    28   15   46 1
    29   16   17 ar
    30   16   47 1
    31   17   18 1
    32   18   19 2
    33   18   20 am
    34   20   21 1
    35   20   48 1
    36   21   25 1
    37   21   22 2
    38   22   23 1
    39   23   24 2
    40   23   26 1
    41   24   25 1
    42   24   49 1
    43   26   31 ar
    44   26   27 ar
    45   27   28 ar
    46   27   50 1
    47   28   29 ar
    48   28   51 1
    49   29   30 ar
    50   29   34 1
    51   30   31 ar
    52   30   32 1
    53   31   52 1
    54   32   33 1
    55   33   53 1
    56   33   54 1
    57   33   55 1
    58   34   35 1
    59   35   56 1
    60   35   57 1
    61   35   58 1
@<TRIPOS>MOLECULE
ZINC13527173
   62    66     0     0     0
SMALL
USER_CHARGES
[2-(2-furylmethylcarbamoylamino)-2-oxo-ethyl] (3E)-3-(p-tolylmethylene)-1,2-dihydrocyclopenta[b]quinoline-9-carboxylate
@<TRIPOS>ATOM
      1 C1         10.5666   -5.9975    0.3110 C.3       1 <0>        -0.1187
      2 C2          9.4190   -5.0258    0.2119 C.ar      1 <0>        -0.0789
      3 C3          9.6098   -3.7938   -0.3888 C.ar      1 <0>        -0.1214
      4 C4          8.5643   -2.8994   -0.4831 C.ar      1 <0>        -0.0961
      5 C5          7.3096   -3.2399    0.0299 C.ar      1 <0>        -0.0704
      6 C6          7.1260   -4.4838    0.6403 C.ar      1 <0>        -0.1039
      7 C7          8.1796   -5.3698    0.7225 C.ar      1 <0>        -0.1214
      8 C8          6.1875   -2.2900   -0.0670 C.2       1 <0>        -0.0441
      9 C9          4.9466   -2.7394   -0.3208 C.2       1 <0>        -0.0891
     10 C10         4.5750   -4.1594   -0.6682 C.3       1 <0>        -0.0864
     11 C11         3.0527   -4.1504   -0.8607 C.3       1 <0>        -0.0893
     12 C12         2.6035   -2.7306   -0.6182 C.ar      1 <0>        -0.0829
     13 C13         3.7134   -1.9280   -0.3069 C.ar      1 <0>         0.1933
     14 N1          3.5730   -0.6315   -0.0514 N.ar      1 <0>        -0.4525
     15 C14         2.3948   -0.0136   -0.0702 C.ar      1 <0>         0.1387
     16 C15         2.2910    1.3629    0.2077 C.ar      1 <0>        -0.0812
     17 C16         1.0719    1.9670    0.1810 C.ar      1 <0>        -0.1013
     18 C17        -0.0820    1.2463   -0.1185 C.ar      1 <0>        -0.0967
     19 C18        -0.0202   -0.0882   -0.3933 C.ar      1 <0>        -0.1041
     20 C19         1.2162   -0.7408   -0.3742 C.ar      1 <0>        -0.0633
     21 C20         1.3344   -2.1705   -0.6615 C.ar      1 <0>        -0.0488
     22 C21         0.1467   -2.9878   -0.9863 C.2       1 <0>         0.5265
     23 O1         -0.2108   -3.1076   -2.1409 O.2       1 <0>        -0.4794
     24 O2         -0.5395   -3.5998   -0.0017 O.3       1 <0>        -0.3203
     25 C22        -1.6954   -4.3861   -0.3941 C.3       1 <0>         0.0477
     26 C23        -2.3313   -4.9905    0.8312 C.2       1 <0>         0.5189
     27 O3         -1.8571   -4.7796    1.9269 O.2       1 <0>        -0.4349
     28 N2         -3.4270   -5.7657    0.7090 N.am      1 <0>        -0.6868
     29 C24        -3.9957   -6.3063    1.8049 C.2       1 <0>         0.6995
     30 O4         -3.5203   -6.0948    2.9033 O.2       1 <0>        -0.5221
     31 N3         -5.0914   -7.0814    1.6827 N.am      1 <0>        -0.7343
     32 C25        -5.7095   -7.6691    2.8738 C.3       1 <0>         0.2203
     33 C26        -6.9092   -8.4851    2.4666 C.2       1 <0>        -0.0461
     34 C27        -6.9005   -9.7921    2.1488 C.2       1 <0>        -0.1762
     35 C28        -8.2322  -10.1455    1.8317 C.2       1 <0>        -0.2189
     36 C29        -8.9751   -9.0332    1.9746 C.2       1 <0>        -0.0230
     37 O5         -8.1694   -8.0320    2.3649 O.3       1 <0>        -0.1709
     38 H1         11.1056   -5.8294    1.2434 H         1 <0>         0.0723
     39 H2         10.1820   -7.0172    0.2924 H         1 <0>         0.0675
     40 H3         11.2424   -5.8486   -0.5312 H         1 <0>         0.0673
     41 H4         10.5801   -3.5320   -0.7844 H         1 <0>         0.1243
     42 H5          8.7147   -1.9384   -0.9525 H         1 <0>         0.1263
     43 H6          6.1605   -4.7518    1.0433 H         1 <0>         0.1301
     44 H7          8.0382   -6.3330    1.1903 H         1 <0>         0.1244
     45 H8          6.3622   -1.2325    0.0659 H         1 <0>         0.1375
     46 H9          5.0698   -4.4637   -1.5905 H         1 <0>         0.0939
     47 H10         4.8494   -4.8307    0.1455 H         1 <0>         0.0963
     48 H11         2.5805   -4.8204   -0.1421 H         1 <0>         0.0951
     49 H12         2.8021   -4.4540   -1.8771 H         1 <0>         0.0942
     50 H13         3.1754    1.9368    0.4422 H         1 <0>         0.1426
     51 H14         0.9979    3.0230    0.3949 H         1 <0>         0.1369
     52 H15        -1.0365    1.7513   -0.1377 H         1 <0>         0.1344
     53 H16        -0.9209   -0.6377   -0.6240 H         1 <0>         0.1249
     54 H17        -2.4173   -3.7439   -0.8987 H         1 <0>         0.1135
     55 H18        -1.3814   -5.1812   -1.0703 H         1 <0>         0.1142
     56 H19        -3.8064   -5.9345   -0.1676 H         1 <0>         0.4132
     57 H20        -5.4708   -7.2502    0.8061 H         1 <0>         0.4031
     58 H21        -4.9876   -8.3112    3.3785 H         1 <0>         0.1044
     59 H22        -6.0235   -6.8739    3.5500 H         1 <0>         0.0902
     60 H23        -6.0410  -10.4460    2.1375 H         1 <0>         0.1524
     61 H24        -8.5852  -11.1211    1.5318 H         1 <0>         0.1526
     62 H25       -10.0397   -8.9591    1.8087 H         1 <0>         0.2069
@<TRIPOS>BOND
     1    1    2 1
     2    1   38 1
     3    1   39 1
     4    1   40 1
     5    2    7 ar
     6    2    3 ar
     7    3    4 ar
     8    3   41 1
     9    4    5 ar
    10    4   42 1
    11    5    6 ar
    12    5    8 1
    13    6    7 ar
    14    6   43 1
    15    7   44 1
    16    8    9 2
    17    8   45 1
    18    9   13 1
    19    9   10 1
    20   10   11 1
    21   10   46 1
    22   10   47 1
    23   11   12 1
    24   11   48 1
    25   11   49 1
    26   12   21 ar
    27   12   13 ar
    28   13   14 ar
    29   14   15 ar
    30   15   20 ar
    31   15   16 ar
    32   16   17 ar
    33   16   50 1
    34   17   18 ar
    35   17   51 1
    36   18   19 ar
    37   18   52 1
    38   19   20 ar
    39   19   53 1
    40   20   21 ar
    41   21   22 1
    42   22   23 2
    43   22   24 1
    44   24   25 1
    45   25   26 1
    46   25   54 1
    47   25   55 1
    48   26   27 2
    49   26   28 am
    50   28   29 am
    51   28   56 1
    52   29   30 2
    53   29   31 am
    54   31   32 1
    55   31   57 1
    56   32   33 1
    57   32   58 1
    58   32   59 1
    59   33   37 1
    60   33   34 2
    61   34   35 1
    62   34   60 1
    63   35   36 2
    64   35   61 1
    65   36   37 1
    66   36   62 1
@<TRIPOS>MOLECULE
ZINC34847412
   74    79     0     0     0
SMALL
USER_CHARGES

@<TRIPOS>ATOM
      1 C1          0.1657    1.0149    1.0913 C.3       1 <0>        -0.1425
      2 C2         -0.0211   -0.0208   -0.0192 C.3       1 <0>         0.1962
      3 H1          0.1774    0.4428   -0.9856 H         1 <0>         0.1054
      4 C3          0.9357   -1.1651    0.1950 C.ar      1 <0>        -0.1005
      5 C4          0.6886   -2.0964    1.1863 C.ar      1 <0>        -0.1031
      6 C5          1.5663   -3.1461    1.3828 C.ar      1 <0>        -0.1205
      7 C6          2.6909   -3.2648    0.5877 C.ar      1 <0>        -0.1183
      8 C7          2.9375   -2.3341   -0.4041 C.ar      1 <0>        -0.1185
      9 C8          2.0576   -1.2868   -0.6034 C.ar      1 <0>        -0.1053
     10 N1         -1.3971   -0.5231    0.0079 N.am      1 <0>        -0.6077
     11 C9         -1.9827   -1.4872   -0.9757 C.3       1 <0>         0.1612
     12 H2         -1.7803   -2.5166   -0.6801 H         1 <0>         0.1104
     13 C10        -3.4447   -1.1796   -0.8767 C.3       1 <0>         0.1029
     14 C11        -3.8090    0.1570   -1.4966 C.2       1 <0>        -0.1510
     15 C12        -5.1189    0.2805   -1.3403 C.2       1 <0>        -0.1861
     16 C13        -5.5456   -0.9695   -0.5608 C.3       1 <0>         0.1035
     17 H3         -6.6012   -1.2350   -0.6202 H         1 <0>         0.1554
     18 O1         -4.5850   -1.9799   -1.0823 O.3       1 <0>        -0.3119
     19 C14        -4.9871   -0.6669    0.8836 C.3       1 <0>        -0.1082
     20 H4         -5.4648   -1.3027    1.6290 H         1 <0>         0.1274
     21 C15        -3.5173   -1.0430    0.6972 C.3       1 <0>        -0.1627
     22 H5         -3.3347   -2.0207    1.1431 H         1 <0>         0.1245
     23 C16        -2.3448   -0.1855    0.9437 C.2       1 <0>         0.5481
     24 O2         -2.2379    0.6594    1.8072 O.2       1 <0>        -0.4473
     25 C17        -5.1523    0.7896    1.2333 C.2       1 <0>         0.5122
     26 O3         -4.1766    1.4727    1.4626 O.2       1 <0>        -0.4669
     27 N2         -6.3842    1.3332    1.2914 N.am      1 <0>        -0.6723
     28 C18        -6.5337    2.7058    1.5297 C.ar      1 <0>         0.1084
     29 C19        -7.5666    3.4077    0.9226 C.ar      1 <0>        -0.1050
     30 C20        -7.7136    4.7603    1.1582 C.ar      1 <0>        -0.1348
     31 C21        -6.8295    5.4181    2.0009 C.ar      1 <0>         0.1138
     32 C22        -5.7971    4.7175    2.6074 C.ar      1 <0>        -0.1892
     33 C23        -5.6526    3.3636    2.3775 C.ar      1 <0>        -0.0764
     34 O4         -6.9747    6.7501    2.2321 O.3       1 <0>        -0.3184
     35 C24        -6.0286    7.3629    3.1105 C.3       1 <0>         0.0266
     36 C25        -1.4677   -1.2177   -2.3661 C.2       1 <0>         0.5213
     37 O5         -0.9677   -0.1447   -2.6302 O.2       1 <0>        -0.5168
     38 N3         -1.5629   -2.1689   -3.3161 N.am      1 <0>        -0.7179
     39 C26        -1.0622   -1.9069   -4.6677 C.3       1 <0>         0.1483
     40 C27        -2.1426   -1.1925   -5.4822 C.3       1 <0>        -0.1278
     41 C28        -1.6198   -0.9189   -6.8938 C.3       1 <0>        -0.1174
     42 C29        -1.2629   -2.2435   -7.5711 C.3       1 <0>        -0.1227
     43 C30        -0.1825   -2.9579   -6.7567 C.3       1 <0>        -0.1158
     44 C31        -0.7053   -3.2316   -5.3451 C.3       1 <0>        -0.1266
     45 H6          1.1894    1.3887    1.0711 H         1 <0>         0.0631
     46 H7         -0.5264    1.8427    0.9363 H         1 <0>         0.0736
     47 H8         -0.0329    0.5514    2.0576 H         1 <0>         0.0670
     48 H9         -0.1900   -2.0036    1.8074 H         1 <0>         0.1154
     49 H10         1.3736   -3.8733    2.1577 H         1 <0>         0.1212
     50 H11         3.3770   -4.0845    0.7417 H         1 <0>         0.1213
     51 H12         3.8163   -2.4266   -1.0250 H         1 <0>         0.1222
     52 H13         2.2483   -0.5617   -1.3808 H         1 <0>         0.1220
     53 H14        -3.1392    0.8616   -1.9670 H         1 <0>         0.1544
     54 H15        -5.7492    1.0862   -1.6868 H         1 <0>         0.1560
     55 H16        -7.1673    0.7742    1.1682 H         1 <0>         0.4068
     56 H17        -8.2545    2.8958    0.2660 H         1 <0>         0.1318
     57 H18        -8.5170    5.3063    0.6861 H         1 <0>         0.1343
     58 H19        -5.1087    5.2304    3.2627 H         1 <0>         0.1303
     59 H20        -4.8517    2.8174    2.8535 H         1 <0>         0.1433
     60 H21        -6.2578    8.4241    3.2081 H         1 <0>         0.1007
     61 H22        -6.0818    6.8881    4.0901 H         1 <0>         0.0558
     62 H23        -5.0246    7.2441    2.7031 H         1 <0>         0.0560
     63 H24        -1.9628   -3.0270   -3.1049 H         1 <0>         0.4018
     64 H25        -0.1744   -1.2772   -4.6106 H         1 <0>         0.0896
     65 H26        -3.0305   -1.8222   -5.5393 H         1 <0>         0.0643
     66 H27        -2.3969   -0.2488   -4.9996 H         1 <0>         0.0662
     67 H28        -2.3895   -0.4100   -7.4740 H         1 <0>         0.0652
     68 H29        -0.7319   -0.2892   -6.8367 H         1 <0>         0.0642
     69 H30        -2.1507   -2.8733   -7.6283 H         1 <0>         0.0630
     70 H31        -0.8904   -2.0486   -8.5768 H         1 <0>         0.0645
     71 H32         0.0718   -3.9016   -7.2393 H         1 <0>         0.0682
     72 H33         0.7054   -2.3282   -6.6996 H         1 <0>         0.0652
     73 H34         0.0644   -3.7405   -4.7649 H         1 <0>         0.0693
     74 H35        -1.5932   -3.8613   -5.4022 H         1 <0>         0.0690
@<TRIPOS>BOND
     1    1    2 1
     2    1   45 1
     3    1   46 1
     4    1   47 1
     5    2    3 1
     6    2    4 1
     7    2   10 1
     8    4    9 ar
     9    4    5 ar
    10    5    6 ar
    11    5   48 1
    12    6    7 ar
    13    6   49 1
    14    7    8 ar
    15    7   50 1
    16    8    9 ar
    17    8   51 1
    18    9   52 1
    19   10   23 am
    20   10   11 1
    21   11   12 1
    22   11   13 1
    23   11   36 1
    24   13   18 1
    25   13   21 1
    26   13   14 1
    27   14   15 2
    28   14   53 1
    29   15   16 1
    30   15   54 1
    31   16   17 1
    32   16   18 1
    33   16   19 1
    34   19   20 1
    35   19   21 1
    36   19   25 1
    37   21   22 1
    38   21   23 1
    39   23   24 2
    40   25   26 2
    41   25   27 am
    42   27   28 1
    43   27   55 1
    44   28   33 ar
    45   28   29 ar
    46   29   30 ar
    47   29   56 1
    48   30   31 ar
    49   30   57 1
    50   31   32 ar
    51   31   34 1
    52   32   33 ar
    53   32   58 1
    54   33   59 1
    55   34   35 1
    56   35   60 1
    57   35   61 1
    58   35   62 1
    59   36   37 2
    60   36   38 am
    61   38   39 1
    62   38   63 1
    63   39   44 1
    64   39   40 1
    65   39   64 1
    66   40   41 1
    67   40   65 1
    68   40   66 1
    69   41   42 1
    70   41   67 1
    71   41   68 1
    72   42   43 1
    73   42   69 1
    74   42   70 1
    75   43   44 1
    76   43   71 1
    77   43   72 1
    78   44   73 1
    79   44   74 1
@<TRIPOS>MOLECULE
ZINC40920686
   65    69     0     0     0
SMALL
USER_CHARGES

@<TRIPOS>ATOM
      1 C1         -3.3081   -1.4067    1.0072 C.3       1 <0>        -0.1124
      2 C2         -1.9690   -1.8891    0.5123 C.ar      1 <0>        -0.1159
      3 C3         -1.8774   -2.5588   -0.6923 C.ar      1 <0>        -0.0988
      4 C4         -0.6492   -3.0022   -1.1469 C.ar      1 <0>        -0.1338
      5 C5          0.4914   -2.7765   -0.3979 C.ar      1 <0>        -0.1034
      6 C6          0.4068   -2.1072    0.8069 C.ar      1 <0>        -0.1371
      7 C7         -0.8249   -1.6558    1.2640 C.ar      1 <0>         0.1435
      8 N1         -0.9133   -0.9731    2.4812 N.am      1 <0>        -0.6564
      9 C8          0.1875   -0.4142    3.0219 C.2       1 <0>         0.5929
     10 O1          1.2403   -0.4272    2.4099 O.2       1 <0>        -0.5017
     11 C9          0.1201    0.1875    4.3006 C.2       1 <0>        -0.2900
     12 C10         0.1937   -0.6014    5.3824 C.2       1 <0>         0.2172
     13 N2          0.1477   -0.1002    6.6607 N.pl3     1 <0>        -0.6033
     14 C11         0.2801    1.2724    6.8123 C.2       1 <0>         0.4634
     15 N3          0.4856    1.9980    7.8741 N.2       1 <0>        -0.3355
     16 N4          0.5492    3.2460    7.5573 N.2       1 <0>        -0.0215
     17 N5          0.3877    3.3962    6.2821 N.2       1 <0>        -0.0508
     18 N6          0.2039    2.1201    5.7535 N.pl3     1 <0>        -0.3871
     19 C12        -0.0248    1.6843    4.3822 C.3       1 <0>         0.2809
     20 H1          0.7026    2.1565    3.7219 H         1 <0>         0.1205
     21 C13        -1.4170    2.0782    3.9604 C.ar      1 <0>        -0.1127
     22 C14        -2.5038    1.6920    4.7226 C.ar      1 <0>        -0.0904
     23 C15        -3.7828    2.0509    4.3399 C.ar      1 <0>        -0.1718
     24 C16        -3.9776    2.7996    3.1904 C.ar      1 <0>         0.1227
     25 C17        -2.8836    3.1888    2.4235 C.ar      1 <0>         0.1075
     26 C18        -1.6039    2.8298    2.8153 C.ar      1 <0>        -0.1424
     27 O2         -3.0697    3.9237    1.2944 O.3       1 <0>        -0.3009
     28 C19        -1.9141    4.1939    0.4984 C.3       1 <0>         0.0232
     29 O3         -5.2352    3.1531    2.8123 O.3       1 <0>        -0.2991
     30 C20        -6.3101    2.7183    3.6475 C.3       1 <0>         0.0637
     31 C21        -7.6380    3.2075    3.0659 C.3       1 <0>        -0.0777
     32 C22        -8.7715    2.7489    3.9467 C.ar      1 <0>        -0.0870
     33 C23        -9.3781    1.5289    3.7134 C.ar      1 <0>        -0.1135
     34 C24       -10.4179    1.1082    4.5214 C.ar      1 <0>        -0.1181
     35 C25       -10.8508    1.9074    5.5629 C.ar      1 <0>        -0.1191
     36 C26       -10.2436    3.1271    5.7968 C.ar      1 <0>        -0.1176
     37 C27        -9.2010    3.5458    4.9915 C.ar      1 <0>        -0.1133
     38 C28         0.3310   -2.0897    5.1892 C.3       1 <0>        -0.1371
     39 H2         -3.4457   -0.3631    0.7240 H         1 <0>         0.0716
     40 H3         -4.0990   -2.0111    0.5629 H         1 <0>         0.0724
     41 H4         -3.3483   -1.4969    2.0927 H         1 <0>         0.0580
     42 H5         -2.7662   -2.7366   -1.2796 H         1 <0>         0.1254
     43 H6         -0.5804   -3.5262   -2.0888 H         1 <0>         0.1228
     44 H7          1.4492   -3.1244   -0.7556 H         1 <0>         0.1252
     45 H8          1.2978   -1.9317    1.3915 H         1 <0>         0.1554
     46 H9         -1.7669   -0.9016    2.9364 H         1 <0>         0.4118
     47 H10         0.0272   -0.6829    7.4268 H         1 <0>         0.4462
     48 H11        -2.3533    1.1084    5.6187 H         1 <0>         0.1176
     49 H12        -4.6302    1.7473    4.9367 H         1 <0>         0.1392
     50 H13        -0.7529    3.1337    2.2239 H         1 <0>         0.1403
     51 H14        -2.1951    4.8180   -0.3499 H         1 <0>         0.1046
     52 H15        -1.1707    4.7145    1.1021 H         1 <0>         0.0571
     53 H16        -1.4951    3.2552    0.1359 H         1 <0>         0.0566
     54 H17        -6.3143    1.6294    3.6969 H         1 <0>         0.0649
     55 H18        -6.1798    3.1269    4.6496 H         1 <0>         0.0645
     56 H19        -7.6338    4.2964    3.0165 H         1 <0>         0.0858
     57 H20        -7.7683    2.7989    2.0638 H         1 <0>         0.0858
     58 H21        -9.0399    0.9045    2.8997 H         1 <0>         0.1230
     59 H22       -10.8923    0.1554    4.3387 H         1 <0>         0.1237
     60 H23       -11.6636    1.5791    6.1937 H         1 <0>         0.1231
     61 H24       -10.5820    3.7516    6.6103 H         1 <0>         0.1240
     62 H25        -8.7241    4.4970    5.1764 H         1 <0>         0.1233
     63 H26         1.3875   -2.3564    5.1608 H         1 <0>         0.1028
     64 H27        -0.1528   -2.6096    6.0160 H         1 <0>         0.0926
     65 H28        -0.1422   -2.3795    4.2510 H         1 <0>         0.0951
@<TRIPOS>BOND
     1    1    2 1
     2    1   39 1
     3    1   40 1
     4    1   41 1
     5    2    7 ar
     6    2    3 ar
     7    3    4 ar
     8    3   42 1
     9    4    5 ar
    10    4   43 1
    11    5    6 ar
    12    5   44 1
    13    6    7 ar
    14    6   45 1
    15    7    8 1
    16    8    9 am
    17    8   46 1
    18    9   10 2
    19    9   11 1
    20   11   19 1
    21   11   12 2
    22   12   13 1
    23   12   38 1
    24   13   14 1
    25   13   47 1
    26   14   18 1
    27   14   15 2
    28   15   16 1
    29   16   17 2
    30   17   18 1
    31   18   19 1
    32   19   20 1
    33   19   21 1
    34   21   26 ar
    35   21   22 ar
    36   22   23 ar
    37   22   48 1
    38   23   24 ar
    39   23   49 1
    40   24   25 ar
    41   24   29 1
    42   25   26 ar
    43   25   27 1
    44   26   50 1
    45   27   28 1
    46   28   51 1
    47   28   52 1
    48   28   53 1
    49   29   30 1
    50   30   31 1
    51   30   54 1
    52   30   55 1
    53   31   32 1
    54   31   56 1
    55   31   57 1
    56   32   37 ar
    57   32   33 ar
    58   33   34 ar
    59   33   58 1
    60   34   35 ar
    61   34   59 1
    62   35   36 ar
    63   35   60 1
    64   36   37 ar
    65   36   61 1
    66   37   62 1
    67   38   63 1
    68   38   64 1
    69   38   65 1
@<TRIPOS>MOLECULE
ZINC09124104
   63    67     0     0     0
SMALL
USER_CHARGES

@<TRIPOS>ATOM
      1 C1         -0.0325    1.4039    0.9227 C.3       1 <0>        -0.1263
      2 C2         -0.0250   -0.0798    0.6591 C.ar      1 <0>        -0.0412
      3 C3          0.6134   -0.9320    1.5409 C.ar      1 <0>        -0.1374
      4 C4          0.6238   -2.2964    1.3036 C.ar      1 <0>         0.1494
      5 C5         -0.0144   -2.8093    0.1684 C.ar      1 <0>        -0.0549
      6 C6         -0.6557   -1.9415   -0.7144 C.ar      1 <0>        -0.0656
      7 C7         -0.6625   -0.5836   -0.4621 C.ar      1 <0>        -0.0468
      8 Cl1        -1.4672    0.4959   -1.5579 Cl        1 <0>        -0.0543
      9 C8         -0.0081   -4.2653   -0.0937 C.2       1 <0>         0.1023
     10 C9          1.0733   -5.0311   -0.3922 C.2       1 <0>        -0.1723
     11 C10         0.5849   -6.3472   -0.5555 C.2       1 <0>        -0.0379
     12 N1         -0.7168   -6.3012   -0.3532 N.2       1 <0>        -0.1990
     13 N2         -1.0875   -5.1017   -0.0767 N.pl3     1 <0>        -0.3747
     14 H1         -1.9992   -4.8304    0.1131 H         1 <0>         0.4532
     15 C11         1.7291   -7.2172   -0.8821 C.2       1 <0>         0.6072
     16 O1          1.6547   -8.4134   -1.0859 O.2       1 <0>        -0.5129
     17 N3          2.8661   -6.5018   -0.9232 N.am      1 <0>        -0.5919
     18 C12         2.5578   -5.0982   -0.6259 C.3       1 <0>         0.2640
     19 H2          3.0924   -4.7794    0.2689 H         1 <0>         0.1047
     20 C13         2.9376   -4.2257   -1.7946 C.ar      1 <0>        -0.0735
     21 C14         2.3831   -4.4601   -3.0392 C.ar      1 <0>        -0.0484
     22 C15         2.7282   -3.6627   -4.1143 C.ar      1 <0>        -0.1781
     23 C16         3.6314   -2.6254   -3.9459 C.ar      1 <0>         0.1121
     24 C17         4.1892   -2.3892   -2.6931 C.ar      1 <0>         0.0987
     25 C18         3.8353   -3.1893   -1.6185 C.ar      1 <0>        -0.1437
     26 O2          5.0760   -1.3724   -2.5227 O.3       1 <0>        -0.3073
     27 C19         5.6081   -1.1888   -1.2092 C.3       1 <0>         0.0282
     28 O3          3.9723   -1.8402   -5.0026 O.3       1 <0>        -0.2987
     29 C20         3.3607   -2.1414   -6.2586 C.3       1 <0>         0.1031
     30 C21         3.8553   -1.1740   -7.3029 C.ar      1 <0>        -0.0954
     31 C22         3.1836    0.0150   -7.5170 C.ar      1 <0>        -0.0948
     32 C23         3.6373    0.9024   -8.4749 C.ar      1 <0>        -0.1233
     33 C24         4.7629    0.6009   -9.2185 C.ar      1 <0>        -0.1099
     34 C25         5.4351   -0.5878   -9.0038 C.ar      1 <0>        -0.1235
     35 C26         4.9839   -1.4732   -8.0429 C.ar      1 <0>        -0.0945
     36 C27         4.1978   -7.0367   -1.2178 C.3       1 <0>         0.1434
     37 C28         4.3825   -7.1393   -2.7331 C.3       1 <0>         0.0539
     38 O4          4.4735   -5.8271   -3.2918 O.3       1 <0>        -0.5505
     39 O5          1.2518   -3.1341    2.1694 O.3       1 <0>        -0.4857
     40 H3         -0.9034    1.6615    1.5253 H         1 <0>         0.0820
     41 H4          0.8752    1.6824    1.4582 H         1 <0>         0.0764
     42 H5         -0.0745    1.9410   -0.0249 H         1 <0>         0.0789
     43 H6          1.1049   -0.5330    2.4159 H         1 <0>         0.1450
     44 H7         -1.1498   -2.3309   -1.5923 H         1 <0>         0.1398
     45 H8          1.6790   -5.2683   -3.1718 H         1 <0>         0.1099
     46 H9          2.2941   -3.8483   -5.0857 H         1 <0>         0.1280
     47 H10         4.2639   -3.0057   -0.6443 H         1 <0>         0.1291
     48 H11         6.3006   -0.3471   -1.2120 H         1 <0>         0.0980
     49 H12         4.7943   -0.9876   -0.5125 H         1 <0>         0.0522
     50 H13         6.1351   -2.0919   -0.9012 H         1 <0>         0.0535
     51 H14         3.6190   -3.1583   -6.5539 H         1 <0>         0.0693
     52 H15         2.2782   -2.0538   -6.1658 H         1 <0>         0.0683
     53 H16         2.3042    0.2506   -6.9360 H         1 <0>         0.1232
     54 H17         3.1121    1.8311   -8.6427 H         1 <0>         0.1249
     55 H18         5.1169    1.2938   -9.9675 H         1 <0>         0.1241
     56 H19         6.3143   -0.8235   -9.5850 H         1 <0>         0.1250
     57 H20         5.5113   -2.4002   -7.8726 H         1 <0>         0.1236
     58 H21         4.9560   -6.3721   -0.8035 H         1 <0>         0.0958
     59 H22         4.2988   -8.0260   -0.7716 H         1 <0>         0.1001
     60 H23         5.2967   -7.6912   -2.9512 H         1 <0>         0.0579
     61 H24         3.5303   -7.6612   -3.1685 H         1 <0>         0.0503
     62 H25         4.5917   -5.8156   -4.2515 H         1 <0>         0.3717
     63 H26         0.7074   -3.4018    2.9224 H         1 <0>         0.3958
@<TRIPOS>BOND
     1    1    2 1
     2    1   40 1
     3    1   41 1
     4    1   42 1
     5    2    7 ar
     6    2    3 ar
     7    3    4 ar
     8    3   43 1
     9    4    5 ar
    10    4   39 1
    11    5    6 ar
    12    5    9 1
    13    6    7 ar
    14    6   44 1
    15    7    8 1
    16    9   13 1
    17    9   10 2
    18   10   18 1
    19   10   11 1
    20   11   12 2
    21   11   15 1
    22   12   13 1
    23   13   14 1
    24   15   16 2
    25   15   17 am
    26   17   18 1
    27   17   36 1
    28   18   19 1
    29   18   20 1
    30   20   25 ar
    31   20   21 ar
    32   21   22 ar
    33   21   45 1
    34   22   23 ar
    35   22   46 1
    36   23   24 ar
    37   23   28 1
    38   24   25 ar
    39   24   26 1
    40   25   47 1
    41   26   27 1
    42   27   48 1
    43   27   49 1
    44   27   50 1
    45   28   29 1
    46   29   30 1
    47   29   51 1
    48   29   52 1
    49   30   35 ar
    50   30   31 ar
    51   31   32 ar
    52   31   53 1
    53   32   33 ar
    54   32   54 1
    55   33   34 ar
    56   33   55 1
    57   34   35 ar
    58   34   56 1
    59   35   57 1
    60   36   37 1
    61   36   58 1
    62   36   59 1
    63   37   38 1
    64   37   60 1
    65   37   61 1
    66   38   62 1
    67   39   63 1
@<TRIPOS>MOLECULE
ZINC09674404
   65    69     0     0     0
SMALL
USER_CHARGES
N-cyclohexyl-3-[(2-fluorophenyl)carbamoylmethylsulfanyl-oxo-BLAHyl]-propanamide
@<TRIPOS>ATOM
      1 C1         -6.0640   11.9876   -2.9857 C.ar      1 <0>        -0.1279
      2 C2         -7.2424   12.6331   -2.6388 C.ar      1 <0>        -0.0758
      3 C3         -7.7130   12.5947   -1.3448 C.ar      1 <0>        -0.0990
      4 C4         -6.9971   11.8981   -0.3681 C.ar      1 <0>         0.1459
      5 C5         -5.8009   11.2432   -0.7261 C.ar      1 <0>        -0.1056
      6 C6         -5.3405   11.2942   -2.0378 C.ar      1 <0>        -0.0457
      7 C7         -5.0591   10.5131    0.3247 C.2       1 <0>         0.3898
      8 N1         -3.9462    9.8375    0.2583 N.2       1 <0>        -0.4851
      9 C8         -3.6570    9.3139    1.6005 C.3       1 <0>         0.0256
     10 H1         -2.7103    9.7089    1.9689 H         1 <0>         0.1503
     11 C9         -4.8091    9.8147    2.4451 C.2       1 <0>         0.5011
     12 O1         -4.9890    9.6233    3.6285 O.2       1 <0>        -0.4273
     13 N2         -5.5959   10.5204    1.6010 N.am      1 <0>        -0.5362
     14 C10        -6.7756   11.1933    1.8424 C.2       1 <0>         0.3554
     15 N3         -7.4308   11.8393    0.9160 N.2       1 <0>        -0.5158
     16 S1         -7.4290   11.1811    3.4788 S.3       1 <0>         0.1283
     17 C11        -8.9212   12.1745    3.2288 C.3       1 <0>        -0.1648
     18 C12        -9.6638   12.3027    4.5338 C.2       1 <0>         0.5361
     19 O2         -9.2272   11.7744    5.5345 O.2       1 <0>        -0.5004
     20 N4        -10.8132   13.0044    4.5890 N.am      1 <0>        -0.6627
     21 C13       -11.5517   13.0462    5.7782 C.ar      1 <0>         0.1101
     22 C14       -10.8986   13.0436    7.0031 C.ar      1 <0>        -0.0940
     23 C15       -11.6296   13.0853    8.1746 C.ar      1 <0>        -0.1093
     24 C16       -13.0109   13.1301    8.1292 C.ar      1 <0>        -0.1015
     25 C17       -13.6662   13.1328    6.9116 C.ar      1 <0>        -0.1354
     26 C18       -12.9406   13.0961    5.7347 C.ar      1 <0>         0.0748
     27 F1        -13.5804   13.1044    4.5448 F         1 <0>        -0.1365
     28 C19        -3.6286    7.7842    1.5849 C.3       1 <0>        -0.0761
     29 C20        -2.4417    7.3047    0.7469 C.3       1 <0>        -0.1339
     30 C21        -2.4137    5.7981    0.7315 C.2       1 <0>         0.5138
     31 O3         -3.2597    5.1697    1.3317 O.2       1 <0>        -0.5379
     32 N5         -1.4484    5.1489    0.0508 N.am      1 <0>        -0.7289
     33 C22        -1.4212    3.6842    0.0358 C.3       1 <0>         0.1442
     34 C23        -0.6966    3.2004   -1.2218 C.3       1 <0>        -0.1262
     35 C24        -0.6682    1.6708   -1.2375 C.3       1 <0>        -0.1167
     36 C25         0.0684    1.1617    0.0032 C.3       1 <0>        -0.1225
     37 C26        -0.6562    1.6455    1.2609 C.3       1 <0>        -0.1182
     38 C27        -0.6846    3.1751    1.2765 C.3       1 <0>        -0.1289
     39 H2         -5.7105   12.0287   -4.0054 H         1 <0>         0.1370
     40 H3         -7.7970   13.1724   -3.3924 H         1 <0>         0.1374
     41 H4         -8.6312   13.1012   -1.0863 H         1 <0>         0.1414
     42 H5         -4.4238   10.7936   -2.3122 H         1 <0>         0.1427
     43 H6         -8.6422   13.1655    2.8706 H         1 <0>         0.1361
     44 H7         -9.5617   11.6891    2.4924 H         1 <0>         0.1362
     45 H8        -11.1289   13.4805    3.8051 H         1 <0>         0.4179
     46 H9         -9.8198   13.0087    7.0403 H         1 <0>         0.1502
     47 H10       -11.1213   13.0833    9.1275 H         1 <0>         0.1359
     48 H11       -13.5793   13.1626    9.0469 H         1 <0>         0.1365
     49 H12       -14.7451   13.1678    6.8795 H         1 <0>         0.1414
     50 H13        -4.5551    7.4080    1.1512 H         1 <0>         0.0783
     51 H14        -3.5274    7.4123    2.6044 H         1 <0>         0.0949
     52 H15        -1.5151    7.6809    1.1806 H         1 <0>         0.0987
     53 H16        -2.5428    7.6767   -0.2727 H         1 <0>         0.1072
     54 H17        -0.7717    5.6515   -0.4292 H         1 <0>         0.4005
     55 H18        -2.4419    3.3019    0.0369 H         1 <0>         0.0875
     56 H19         0.3241    3.5828   -1.2229 H         1 <0>         0.0682
     57 H20        -1.2213    3.5631   -2.1057 H         1 <0>         0.0684
     58 H21        -0.1520    1.3261   -2.1334 H         1 <0>         0.0678
     59 H22        -1.6889    1.2884   -1.2364 H         1 <0>         0.0652
     60 H23         0.0886    0.0719   -0.0079 H         1 <0>         0.0645
     61 H24         1.0891    1.5441    0.0022 H         1 <0>         0.0628
     62 H25        -1.6770    1.2631    1.2619 H         1 <0>         0.0644
     63 H26        -0.1315    1.2828    2.1447 H         1 <0>         0.0654
     64 H27         0.3361    3.5575    1.2755 H         1 <0>         0.0633
     65 H28        -1.2009    3.5198    2.1725 H         1 <0>         0.0670
@<TRIPOS>BOND
     1    1    6 ar
     2    1    2 ar
     3    1   39 1
     4    2    3 ar
     5    2   40 1
     6    3    4 ar
     7    3   41 1
     8    4   15 1
     9    4    5 ar
    10    5    6 ar
    11    5    7 1
    12    6   42 1
    13    7   13 1
    14    7    8 2
    15    8    9 1
    16    9   10 1
    17    9   11 1
    18    9   28 1
    19   11   12 2
    20   11   13 am
    21   13   14 1
    22   14   15 2
    23   14   16 1
    24   16   17 1
    25   17   18 1
    26   17   43 1
    27   17   44 1
    28   18   19 2
    29   18   20 am
    30   20   21 1
    31   20   45 1
    32   21   26 ar
    33   21   22 ar
    34   22   23 ar
    35   22   46 1
    36   23   24 ar
    37   23   47 1
    38   24   25 ar
    39   24   48 1
    40   25   26 ar
    41   25   49 1
    42   26   27 1
    43   28   29 1
    44   28   50 1
    45   28   51 1
    46   29   30 1
    47   29   52 1
    48   29   53 1
    49   30   31 2
    50   30   32 am
    51   32   33 1
    52   32   54 1
    53   33   38 1
    54   33   34 1
    55   33   55 1
    56   34   35 1
    57   34   56 1
    58   34   57 1
    59   35   36 1
    60   35   58 1
    61   35   59 1
    62   36   37 1
    63   36   60 1
    64   36   61 1
    65   37   38 1
    66   37   62 1
    67   37   63 1
    68   38   64 1
    69   38   65 1
@<TRIPOS>MOLECULE
ZINC16828477
   62    64     0     0     0
SMALL
USER_CHARGES
(2S)-N-(tert-butylcarbamoyl)-2-[[5-(4-ethoxyphenyl)-4-(2-fluorophenyl)-1,2,4-triazol-3-yl]sulfanyl]propanamide
@<TRIPOS>ATOM
      1 C1         -0.2282    1.9477    8.2800 C.3       1 <0>        -0.1538
      2 C2         -0.4163    1.7894    6.7699 C.3       1 <0>         0.0521
      3 O1         -1.7579    1.3798    6.4973 O.3       1 <0>        -0.3110
      4 C3         -2.0931    1.1928    5.1939 C.ar      1 <0>         0.1520
      5 C4         -3.3809    0.7947    4.8603 C.ar      1 <0>        -0.1503
      6 C5         -3.7250    0.6040    3.5392 C.ar      1 <0>        -0.0289
      7 C6         -2.7764    0.8111    2.5358 C.ar      1 <0>        -0.0656
      8 C7         -1.4810    1.2058    2.8758 C.ar      1 <0>        -0.0648
      9 C8         -1.1467    1.4000    4.1990 C.ar      1 <0>        -0.2064
     10 C9         -3.1408    0.6073    1.1182 C.2       1 <0>         0.2532
     11 N1         -4.2033   -0.0190    0.6675 N.2       1 <0>        -0.2656
     12 N2         -4.2069   -0.0105   -0.6174 N.2       1 <0>        -0.2812
     13 C10        -3.1499    0.6264   -1.0688 C.2       1 <0>         0.1560
     14 N3         -2.4298    1.0379    0.0197 N.pl3     1 <0>        -0.4167
     15 C11        -1.2235    1.7537    0.0174 C.ar      1 <0>         0.0613
     16 C12        -0.0126    1.0758    0.0080 C.ar      1 <0>        -0.0719
     17 C13         1.1740    1.7832    0.0004 C.ar      1 <0>        -0.1178
     18 C14         1.1574    3.1659    0.0071 C.ar      1 <0>        -0.0647
     19 C15        -0.0463    3.8458    0.0217 C.ar      1 <0>        -0.1436
     20 C16        -1.2382    3.1438    0.0298 C.ar      1 <0>         0.1288
     21 F1         -2.4146    3.8079    0.0436 F         1 <0>        -0.1210
     22 S1         -2.7350    0.8964   -2.7598 S.3       1 <0>         0.0906
     23 C17        -4.1357    0.0772   -3.5618 C.3       1 <0>        -0.1132
     24 H1         -4.2089   -0.9500   -3.2047 H         1 <0>         0.1319
     25 C18        -5.4260    0.8274   -3.2254 C.3       1 <0>        -0.1476
     26 C19        -3.9296    0.0766   -5.0547 C.2       1 <0>         0.5433
     27 O2         -3.1600    0.8648   -5.5607 O.2       1 <0>        -0.4474
     28 N4         -4.6011   -0.8003   -5.8272 N.am      1 <0>        -0.6852
     29 C20        -4.4168   -0.8009   -7.1623 C.2       1 <0>         0.6966
     30 O3         -3.6452   -0.0107   -7.6696 O.2       1 <0>        -0.5203
     31 N5         -5.0882   -1.6777   -7.9348 N.am      1 <0>        -0.7295
     32 C21        -4.8879   -1.6784   -9.3861 C.3       1 <0>         0.1842
     33 C22        -3.4171   -1.9618   -9.6978 C.3       1 <0>        -0.1673
     34 C23        -5.7618   -2.7619  -10.0210 C.3       1 <0>        -0.1556
     35 C24        -5.2757   -0.3121   -9.9550 C.3       1 <0>        -0.1673
     36 H2         -0.9213    2.7004    8.6555 H         1 <0>         0.0678
     37 H3         -0.4244    0.9952    8.7724 H         1 <0>         0.0679
     38 H4          0.7952    2.2601    8.4879 H         1 <0>         0.0804
     39 H5          0.2768    1.0366    6.3943 H         1 <0>         0.0644
     40 H6         -0.2200    2.7418    6.2775 H         1 <0>         0.0641
     41 H7         -4.1141    0.6347    5.6370 H         1 <0>         0.1419
     42 H8         -4.7268    0.2943    3.2806 H         1 <0>         0.1456
     43 H9         -0.7433    1.3631    2.1030 H         1 <0>         0.1291
     44 H10        -0.1461    1.7096    4.4625 H         1 <0>         0.1348
     45 H11         0.0021   -0.0041    0.0020 H         1 <0>         0.1438
     46 H12         2.1162    1.2554   -0.0110 H         1 <0>         0.1471
     47 H13         2.0868    3.7159    0.0004 H         1 <0>         0.1475
     48 H14        -0.0560    4.9258    0.0272 H         1 <0>         0.1517
     49 H15        -5.3528    1.8546   -3.5825 H         1 <0>         0.0739
     50 H16        -6.2695    0.3341   -3.7083 H         1 <0>         0.0754
     51 H17        -5.5750    0.8279   -2.1456 H         1 <0>         0.0945
     52 H18        -5.2169   -1.4309   -5.4223 H         1 <0>         0.4122
     53 H19        -5.7040   -2.3084   -7.5299 H         1 <0>         0.3981
     54 H20        -3.1408   -2.9352   -9.2925 H         1 <0>         0.0546
     55 H21        -3.2681   -1.9623  -10.7776 H         1 <0>         0.0664
     56 H22        -2.7945   -1.1899   -9.2455 H         1 <0>         0.0798
     57 H23        -6.8097   -2.5600   -9.7989 H         1 <0>         0.0636
     58 H24        -5.6128   -2.7624  -11.1008 H         1 <0>         0.0779
     59 H25        -5.4856   -3.7353   -9.6157 H         1 <0>         0.0635
     60 H26        -4.6532    0.4598   -9.5027 H         1 <0>         0.0798
     61 H27        -5.1267   -0.3126  -11.0348 H         1 <0>         0.0664
     62 H28        -6.3236   -0.1101   -9.7329 H         1 <0>         0.0548
@<TRIPOS>BOND
     1    1    2 1
     2    1   36 1
     3    1   37 1
     4    1   38 1
     5    2    3 1
     6    2   39 1
     7    2   40 1
     8    3    4 1
     9    4    9 ar
    10    4    5 ar
    11    5    6 ar
    12    5   41 1
    13    6    7 ar
    14    6   42 1
    15    7    8 ar
    16    7   10 1
    17    8    9 ar
    18    8   43 1
    19    9   44 1
    20   10   14 1
    21   10   11 2
    22   11   12 1
    23   12   13 2
    24   13   14 1
    25   13   22 1
    26   14   15 1
    27   15   20 ar
    28   15   16 ar
    29   16   17 ar
    30   16   45 1
    31   17   18 ar
    32   17   46 1
    33   18   19 ar
    34   18   47 1
    35   19   20 ar
    36   19   48 1
    37   20   21 1
    38   22   23 1
    39   23   24 1
    40   23   25 1
    41   23   26 1
    42   25   49 1
    43   25   50 1
    44   25   51 1
    45   26   27 2
    46   26   28 am
    47   28   29 am
    48   28   52 1
    49   29   30 2
    50   29   31 am
    51   31   32 1
    52   31   53 1
    53   32   33 1
    54   32   34 1
    55   32   35 1
    56   33   54 1
    57   33   55 1
    58   33   56 1
    59   34   57 1
    60   34   58 1
    61   34   59 1
    62   35   60 1
    63   35   61 1
    64   35   62 1
@<TRIPOS>MOLECULE
ZINC36219790
   71    74     0     0     0
SMALL
USER_CHARGES

@<TRIPOS>ATOM
      1 C1         -0.0138    1.5112    0.0066 C.3       1 <0>        -0.1157
      2 C2          0.0022    0.0043   -0.0094 C.ar      1 <0>        -0.0759
      3 C3          0.0087   -0.6740   -1.2138 C.ar      1 <0>        -0.1198
      4 C4          0.0234   -2.0562   -1.2286 C.ar      1 <0>        -0.0752
      5 C5          0.0319   -2.7600   -0.0388 C.ar      1 <0>        -0.1153
      6 C6          0.0262   -2.0817    1.1656 C.ar      1 <0>        -0.0861
      7 C7          0.0159   -0.6994    1.1803 C.ar      1 <0>        -0.1242
      8 C8          0.0468   -4.2669   -0.0549 C.3       1 <0>         0.1883
      9 N1          1.4328   -4.7414   -0.0618 N.am      1 <0>        -0.6050
     10 C9          2.2567   -5.0051   -1.2582 C.3       1 <0>         0.0766
     11 H1          1.7022   -5.5938   -1.9891 H         1 <0>         0.1264
     12 C10         3.4331   -5.8212   -0.6720 C.3       1 <0>         0.1341
     13 H2          3.2435   -6.8915   -0.7541 H         1 <0>         0.1233
     14 O1          3.4311   -5.4027    0.7069 O.3       1 <0>        -0.3136
     15 C11         2.1855   -5.0097    1.0217 C.2       1 <0>         0.6517
     16 O2          1.7805   -4.9100    2.1630 O.2       1 <0>        -0.5045
     17 C12         4.7307   -5.4541   -1.3447 C.ar      1 <0>        -0.1265
     18 C13         5.4598   -4.3698   -0.8919 C.ar      1 <0>        -0.0558
     19 C14         6.6494   -4.0307   -1.5062 C.ar      1 <0>        -0.1429
     20 C15         7.1131   -4.7799   -2.5798 C.ar      1 <0>         0.1671
     21 C16         6.3783   -5.8684   -3.0320 C.ar      1 <0>        -0.1193
     22 C17         5.1924   -6.2056   -2.4097 C.ar      1 <0>        -0.0797
     23 N2          8.3170   -4.4389   -3.2044 N.am      1 <0>        -0.6750
     24 C18         9.1225   -5.4052   -3.6881 C.2       1 <0>         0.5636
     25 O3          8.7646   -6.5669   -3.6576 O.2       1 <0>        -0.4948
     26 C19        10.4383   -5.0534   -4.2546 C.ar      1 <0>        -0.1800
     27 C20        10.8560   -3.7205   -4.2865 C.ar      1 <0>        -0.0466
     28 C21        12.0861   -3.3986   -4.8171 C.ar      1 <0>        -0.1658
     29 C22        12.9118   -4.3909   -5.3201 C.ar      1 <0>        -0.0459
     30 C23        12.5116   -5.7120   -5.2949 C.ar      1 <0>        -0.2197
     31 C24        11.2791   -6.0549   -4.7588 C.ar      1 <0>         0.1903
     32 O4         10.8871   -7.3532   -4.7278 O.3       1 <0>        -0.2818
     33 C25        11.7967   -8.3185   -5.2595 C.3       1 <0>         0.0198
     34 C26         2.7437   -3.7164   -1.8690 C.2       1 <0>         0.5073
     35 O5          2.7413   -2.6959   -1.2137 O.2       1 <0>        -0.4966
     36 N3          3.1820   -3.6980   -3.1433 N.am      1 <0>        -0.7204
     37 C27         3.6554   -2.4452   -3.7371 C.3       1 <0>         0.1310
     38 C28         4.0927   -2.6985   -5.1812 C.3       1 <0>        -0.1072
     39 C29         2.8788   -3.1092   -6.0171 C.3       1 <0>        -0.1484
     40 C30         4.7024   -1.4206   -5.7610 C.3       1 <0>        -0.1448
     41 H3          1.0100    1.8854    0.0051 H         1 <0>         0.0696
     42 H4         -0.5362    1.8784   -0.8767 H         1 <0>         0.0648
     43 H5         -0.5266    1.8596    0.9031 H         1 <0>         0.0656
     44 H6          0.0021   -0.1241   -2.1434 H         1 <0>         0.1154
     45 H7          0.0278   -2.5862   -2.1696 H         1 <0>         0.1079
     46 H8          0.0325   -2.6316    2.0951 H         1 <0>         0.1223
     47 H9          0.0153   -0.1694    2.1213 H         1 <0>         0.1191
     48 H10        -0.4621   -4.6448    0.8318 H         1 <0>         0.1007
     49 H11        -0.4646   -4.6258   -0.9480 H         1 <0>         0.0918
     50 H12         5.0985   -3.7874   -0.0573 H         1 <0>         0.1299
     51 H13         7.2182   -3.1835   -1.1524 H         1 <0>         0.1273
     52 H14         6.7362   -6.4530   -3.8666 H         1 <0>         0.1447
     53 H15         4.6228   -7.0544   -2.7581 H         1 <0>         0.1312
     54 H16         8.5724   -3.5070   -3.2894 H         1 <0>         0.4092
     55 H17        10.2153   -2.9436   -3.8962 H         1 <0>         0.1316
     56 H18        12.4081   -2.3679   -4.8413 H         1 <0>         0.1332
     57 H19        13.8742   -4.1294   -5.7348 H         1 <0>         0.1328
     58 H20        13.1608   -6.4798   -5.6889 H         1 <0>         0.1377
     59 H21        11.3614   -9.3141   -5.1735 H         1 <0>         0.1052
     60 H22        11.9902   -8.0960   -6.3089 H         1 <0>         0.0580
     61 H23        12.7325   -8.2817   -4.7018 H         1 <0>         0.0580
     62 H24         3.1839   -4.5142   -3.6674 H         1 <0>         0.3981
     63 H25         2.8505   -1.7103   -3.7248 H         1 <0>         0.0668
     64 H26         4.5011   -2.0675   -3.1623 H         1 <0>         0.0660
     65 H27         4.8347   -3.4967   -5.2015 H         1 <0>         0.0766
     66 H28         2.1369   -2.3109   -5.9968 H         1 <0>         0.0572
     67 H29         3.1904   -3.2896   -7.0459 H         1 <0>         0.0583
     68 H30         2.4444   -4.0195   -5.6040 H         1 <0>         0.0534
     69 H31         5.5672   -1.1280   -5.1655 H         1 <0>         0.0565
     70 H32         5.0140   -1.6011   -6.7898 H         1 <0>         0.0604
     71 H33         3.9605   -0.6224   -5.7408 H         1 <0>         0.0580
@<TRIPOS>BOND
     1    1    2 1
     2    1   41 1
     3    1   42 1
     4    1   43 1
     5    2    7 ar
     6    2    3 ar
     7    3    4 ar
     8    3   44 1
     9    4    5 ar
    10    4   45 1
    11    5    6 ar
    12    5    8 1
    13    6    7 ar
    14    6   46 1
    15    7   47 1
    16    8    9 1
    17    8   48 1
    18    8   49 1
    19    9   15 am
    20    9   10 1
    21   10   11 1
    22   10   12 1
    23   10   34 1
    24   12   13 1
    25   12   14 1
    26   12   17 1
    27   14   15 1
    28   15   16 2
    29   17   22 ar
    30   17   18 ar
    31   18   19 ar
    32   18   50 1
    33   19   20 ar
    34   19   51 1
    35   20   21 ar
    36   20   23 1
    37   21   22 ar
    38   21   52 1
    39   22   53 1
    40   23   24 am
    41   23   54 1
    42   24   25 2
    43   24   26 1
    44   26   31 ar
    45   26   27 ar
    46   27   28 ar
    47   27   55 1
    48   28   29 ar
    49   28   56 1
    50   29   30 ar
    51   29   57 1
    52   30   31 ar
    53   30   58 1
    54   31   32 1
    55   32   33 1
    56   33   59 1
    57   33   60 1
    58   33   61 1
    59   34   35 2
    60   34   36 am
    61   36   37 1
    62   36   62 1
    63   37   38 1
    64   37   63 1
    65   37   64 1
    66   38   39 1
    67   38   40 1
    68   38   65 1
    69   39   66 1
    70   39   67 1
    71   39   68 1
    72   40   69 1
    73   40   70 1
    74   40   71 1
@<TRIPOS>MOLECULE
ZINC38659844
   60    63     0     0     0
SMALL
USER_CHARGES

@<TRIPOS>ATOM
      1 C1          0.3605    1.5842   -0.1220 C.3       1 <0>         0.0275
      2 O1          0.2934    0.1575   -0.0747 O.3       1 <0>        -0.3167
      3 C2          0.8166   -0.5205   -1.1309 C.ar      1 <0>         0.0952
      4 C3          1.3874    0.1744   -2.1872 C.ar      1 <0>        -0.1673
      5 C4          1.9184   -0.5142   -3.2601 C.ar      1 <0>        -0.1656
      6 C5          1.8813   -1.9008   -3.2814 C.ar      1 <0>         0.1012
      7 C6          1.3111   -2.5954   -2.2253 C.ar      1 <0>        -0.0675
      8 C7          0.7846   -1.9068   -1.1496 C.ar      1 <0>        -0.0963
      9 C8          1.2708   -4.1017   -2.2485 C.3       1 <0>         0.0908
     10 H1          1.7336   -4.4612   -3.1675 H         1 <0>         0.1119
     11 C9          2.0299   -4.6393   -1.0644 C.ar      1 <0>        -0.1157
     12 C10         3.4135   -4.6362   -1.0846 C.ar      1 <0>        -0.0589
     13 C11         4.1263   -5.1253   -0.0080 C.ar      1 <0>        -0.1233
     14 C12         3.4547   -5.6226    1.1003 C.ar      1 <0>         0.1198
     15 C13         2.0696   -5.6267    1.1238 C.ar      1 <0>        -0.1291
     16 C14         1.3541   -5.1340    0.0400 C.ar      1 <0>         0.1344
     17 O2         -0.0012   -5.1454    0.0785 O.3       1 <0>        -0.2426
     18 C15        -0.7047   -5.0492   -1.0619 C.2       1 <0>         0.4415
     19 C16        -0.1588   -4.5623   -2.1978 C.2       1 <0>        -0.2756
     20 C17        -0.9633   -4.4848   -3.3799 C.1       1 <0>         0.2751
     21 N1         -1.6014   -4.4233   -4.3177 N.1       1 <0>        -0.4453
     22 N2         -2.0155   -5.4562   -1.0722 N.pl3     1 <0>        -0.8299
     23 O3          4.1548   -6.1042    2.1610 O.3       1 <0>        -0.2881
     24 C18         4.1160   -7.4308    2.3949 C.2       1 <0>         0.5134
     25 O4          3.5558   -8.1701    1.6099 O.2       1 <0>        -0.4862
     26 C19         4.7532   -7.9852    3.6036 C.ar      1 <0>        -0.1697
     27 C20         5.3931   -7.1358    4.5111 C.ar      1 <0>        -0.0177
     28 C21         5.9863   -7.6576    5.6386 C.ar      1 <0>        -0.1650
     29 C22         5.9497   -9.0270    5.8753 C.ar      1 <0>         0.1730
     30 C23         5.3148   -9.8752    4.9754 C.ar      1 <0>        -0.2236
     31 C24         4.7140   -9.3611    3.8483 C.ar      1 <0>        -0.0064
     32 O5          6.5356   -9.5371    6.9879 O.3       1 <0>        -0.3037
     33 C25         6.4608  -10.9526    7.1696 C.3       1 <0>         0.0836
     34 C26         7.1610  -11.3326    8.4488 C.2       1 <0>        -0.1630
     35 C27         6.6009  -12.1809    9.2750 C.2       1 <0>        -0.1638
     36 O6          2.4037   -2.5787   -4.3381 O.3       1 <0>        -0.3141
     37 C28         2.9746   -1.7992   -5.3909 C.3       1 <0>         0.0272
     38 H2          1.4028    1.8970   -0.1835 H         1 <0>         0.0548
     39 H3         -0.1793    1.9445   -0.9977 H         1 <0>         0.0541
     40 H4         -0.0908    1.9992    0.7792 H         1 <0>         0.1002
     41 H5          1.4163    1.2539   -2.1706 H         1 <0>         0.1310
     42 H6          2.3621    0.0268   -4.0828 H         1 <0>         0.1323
     43 H7          0.3442   -2.4479   -0.3252 H         1 <0>         0.1318
     44 H8          3.9380   -4.2499   -1.9462 H         1 <0>         0.1454
     45 H9          5.2061   -5.1214   -0.0283 H         1 <0>         0.1425
     46 H10         1.5457   -6.0135    1.9854 H         1 <0>         0.1428
     47 H11        -2.4208   -5.8071   -0.2637 H         1 <0>         0.4117
     48 H12        -2.5366   -5.3930   -1.8879 H         1 <0>         0.4258
     49 H13         5.4223   -6.0719    4.3277 H         1 <0>         0.1483
     50 H14         6.4812   -7.0022    6.3399 H         1 <0>         0.1433
     51 H15         5.2892  -10.9385    5.1627 H         1 <0>         0.1398
     52 H16         4.2171  -10.0202    3.1519 H         1 <0>         0.1428
     53 H17         5.4156  -11.2572    7.2231 H         1 <0>         0.0726
     54 H18         6.9424  -11.4527    6.3293 H         1 <0>         0.0775
     55 H19         8.1246  -10.9055    8.6843 H         1 <0>         0.1221
     56 H20         5.6373  -12.6080    9.0394 H         1 <0>         0.1008
     57 H21         7.1026  -12.4533   10.1917 H         1 <0>         0.1105
     58 H22         3.3537   -2.4617   -6.1691 H         1 <0>         0.1008
     59 H23         2.2125   -1.1432   -5.8116 H         1 <0>         0.0539
     60 H24         3.7932   -1.1980   -4.9950 H         1 <0>         0.0556
@<TRIPOS>BOND
     1    1    2 1
     2    1   38 1
     3    1   39 1
     4    1   40 1
     5    2    3 1
     6    3    8 ar
     7    3    4 ar
     8    4    5 ar
     9    4   41 1
    10    5    6 ar
    11    5   42 1
    12    6    7 ar
    13    6   36 1
    14    7    8 ar
    15    7    9 1
    16    8   43 1
    17    9   10 1
    18    9   19 1
    19    9   11 1
    20   11   16 ar
    21   11   12 ar
    22   12   13 ar
    23   12   44 1
    24   13   14 ar
    25   13   45 1
    26   14   15 ar
    27   14   23 1
    28   15   16 ar
    29   15   46 1
    30   16   17 1
    31   17   18 1
    32   18   19 2
    33   18   22 1
    34   19   20 1
    35   20   21 3
    36   22   47 1
    37   22   48 1
    38   23   24 1
    39   24   25 2
    40   24   26 1
    41   26   31 ar
    42   26   27 ar
    43   27   28 ar
    44   27   49 1
    45   28   29 ar
    46   28   50 1
    47   29   30 ar
    48   29   32 1
    49   30   31 ar
    50   30   51 1
    51   31   52 1
    52   32   33 1
    53   33   34 1
    54   33   53 1
    55   33   54 1
    56   34   35 2
    57   34   55 1
    58   35   56 1
    59   35   57 1
    60   36   37 1
    61   37   58 1
    62   37   59 1
    63   37   60 1
@<TRIPOS>MOLECULE
ZINC54615292
   66    70     0     0     0
SMALL
USER_CHARGES

@<TRIPOS>ATOM
      1 C1         -3.4418   -2.2302    5.2603 C.3       1 <0>        -0.1501
      2 C2         -2.6851   -3.0995    4.2541 C.3       1 <0>         0.0583
      3 O1         -1.2789   -2.9106    4.4242 O.3       1 <0>        -0.3163
      4 C3         -0.4572   -3.6158    3.6016 C.ar      1 <0>         0.1033
      5 C4         -0.9927   -4.4663    2.6480 C.ar      1 <0>        -0.1897
      6 C5         -0.1561   -5.1823    1.8121 C.ar      1 <0>        -0.0964
      7 C6          1.2160   -5.0525    1.9243 C.ar      1 <0>        -0.1350
      8 C7          1.7582   -4.2066    2.8732 C.ar      1 <0>        -0.0960
      9 C8          0.9249   -3.4805    3.7118 C.ar      1 <0>         0.1178
     10 N1          1.4719   -2.6181    4.6703 N.am      1 <0>        -0.6510
     11 C9          2.7025   -2.1002    4.4868 C.2       1 <0>         0.5936
     12 O2          3.2973   -2.2987    3.4427 O.2       1 <0>        -0.5108
     13 C10         3.3036   -1.3259    5.5072 C.2       1 <0>        -0.2931
     14 C11         3.9628   -1.9614    6.4868 C.2       1 <0>         0.2172
     15 N2          4.5844   -1.2860    7.5087 N.pl3     1 <0>        -0.6111
     16 C12         4.7386    0.0863    7.3665 C.2       1 <0>         0.4935
     17 N3          5.4633    0.9276    8.0515 N.2       1 <0>        -0.5486
     18 C13         5.3084    2.1592    7.5549 C.2       1 <0>         0.2170
     19 N4          4.4768    2.1142    6.5433 N.2       1 <0>        -0.2929
     20 N5          4.0891    0.7829    6.4009 N.pl3     1 <0>        -0.3836
     21 C14         3.1779    0.1727    5.4384 C.3       1 <0>         0.2868
     22 H1          3.4266    0.5125    4.4331 H         1 <0>         0.1086
     23 C15         1.7634    0.5739    5.7690 C.ar      1 <0>        -0.1442
     24 C16         1.2254    0.2539    7.0018 C.ar      1 <0>        -0.0536
     25 C17        -0.0711    0.6202    7.3070 C.ar      1 <0>        -0.1479
     26 C18        -0.8333    1.3101    6.3755 C.ar      1 <0>         0.1481
     27 C19        -0.2910    1.6305    5.1394 C.ar      1 <0>        -0.2037
     28 C20         1.0078    1.2665    4.8410 C.ar      1 <0>        -0.0467
     29 O3         -2.1092    1.6712    6.6733 O.3       1 <0>        -0.3078
     30 C21        -2.8348    2.3794    5.6663 C.3       1 <0>         0.1046
     31 C22        -4.2193    2.6933    6.1718 C.ar      1 <0>        -0.0957
     32 C23        -4.5967    2.3009    7.4427 C.ar      1 <0>        -0.0933
     33 C24        -5.8665    2.5888    7.9063 C.ar      1 <0>        -0.1252
     34 C25        -6.7593    3.2694    7.0993 C.ar      1 <0>        -0.1128
     35 C26        -6.3817    3.6625    5.8292 C.ar      1 <0>        -0.1190
     36 C27        -5.1101    3.3783    5.3670 C.ar      1 <0>        -0.0774
     37 C28        -4.6967    3.8114    3.9841 C.3       1 <0>        -0.1221
     38 C29         4.0234   -3.4670    6.4662 C.3       1 <0>        -0.1355
     39 H2         -3.1934   -1.1820    5.0940 H         1 <0>         0.0644
     40 H3         -4.5145   -2.3743    5.1305 H         1 <0>         0.0783
     41 H4         -3.1569   -2.5148    6.2731 H         1 <0>         0.0664
     42 H5         -2.9335   -4.1477    4.4204 H         1 <0>         0.0623
     43 H6         -2.9700   -2.8149    3.2413 H         1 <0>         0.0613
     44 H7         -2.0639   -4.5703    2.5579 H         1 <0>         0.1305
     45 H8         -0.5753   -5.8451    1.0696 H         1 <0>         0.1258
     46 H9          1.8655   -5.6139    1.2691 H         1 <0>         0.1280
     47 H10         2.8302   -4.1077    2.9591 H         1 <0>         0.1519
     48 H11         0.9649   -2.3937    5.4663 H         1 <0>         0.4161
     49 H12         4.9027   -1.7497    8.2990 H         1 <0>         0.4402
     50 H13         5.7920    3.0498    7.9282 H         1 <0>         0.2256
     51 H14         1.8192   -0.2833    7.7266 H         1 <0>         0.1194
     52 H15        -0.4912    0.3693    8.2698 H         1 <0>         0.1327
     53 H16        -0.8824    2.1676    4.4126 H         1 <0>         0.1305
     54 H17         1.4319    1.5195    3.8805 H         1 <0>         0.1274
     55 H18        -2.3153    3.3080    5.4295 H         1 <0>         0.0766
     56 H19        -2.9062    1.7641    4.7694 H         1 <0>         0.0764
     57 H20        -3.8993    1.7692    8.0730 H         1 <0>         0.1312
     58 H21        -6.1615    2.2817    8.8988 H         1 <0>         0.1238
     59 H22        -7.7518    3.4937    7.4614 H         1 <0>         0.1237
     60 H23        -7.0792    4.1939    5.1987 H         1 <0>         0.1251
     61 H24        -4.9381    3.0245    3.2695 H         1 <0>         0.0742
     62 H25        -5.2297    4.7232    3.7144 H         1 <0>         0.0716
     63 H26        -3.6232    3.9999    3.9681 H         1 <0>         0.0655
     64 H27         4.8501   -3.7887    5.8328 H         1 <0>         0.1001
     65 H28         4.1763   -3.8384    7.4795 H         1 <0>         0.0885
     66 H29         3.0878   -3.8629    6.0714 H         1 <0>         0.0930
@<TRIPOS>BOND
     1    1    2 1
     2    1   39 1
     3    1   40 1
     4    1   41 1
     5    2    3 1
     6    2   42 1
     7    2   43 1
     8    3    4 1
     9    4    9 ar
    10    4    5 ar
    11    5    6 ar
    12    5   44 1
    13    6    7 ar
    14    6   45 1
    15    7    8 ar
    16    7   46 1
    17    8    9 ar
    18    8   47 1
    19    9   10 1
    20   10   11 am
    21   10   48 1
    22   11   12 2
    23   11   13 1
    24   13   21 1
    25   13   14 2
    26   14   15 1
    27   14   38 1
    28   15   16 1
    29   15   49 1
    30   16   20 1
    31   16   17 2
    32   17   18 1
    33   18   19 2
    34   18   50 1
    35   19   20 1
    36   20   21 1
    37   21   22 1
    38   21   23 1
    39   23   28 ar
    40   23   24 ar
    41   24   25 ar
    42   24   51 1
    43   25   26 ar
    44   25   52 1
    45   26   27 ar
    46   26   29 1
    47   27   28 ar
    48   27   53 1
    49   28   54 1
    50   29   30 1
    51   30   31 1
    52   30   55 1
    53   30   56 1
    54   31   36 ar
    55   31   32 ar
    56   32   33 ar
    57   32   57 1
    58   33   34 ar
    59   33   58 1
    60   34   35 ar
    61   34   59 1
    62   35   36 ar
    63   35   60 1
    64   36   37 1
    65   37   61 1
    66   37   62 1
    67   37   63 1
    68   38   64 1
    69   38   65 1
    70   38   66 1
@<TRIPOS>MOLECULE
ZINC19910170
   45    46     0     0     0
SMALL
USER_CHARGES
4-[[[(2S,6R)-2,6-dimethylcyclohexyl]amino]methyl]benzenesulfonamide
@<TRIPOS>ATOM
      1 C1          3.9959    2.0536   -1.5444 C.3       1 <0>        -0.1723
      2 C2          2.5009    1.7504   -1.4267 C.3       1 <0>        -0.1079
      3 H1          1.9814    2.1130   -2.3259 H         1 <0>         0.0935
      4 C3          1.9337    2.4531   -0.1916 C.3       1 <0>        -0.1148
      5 C4          0.4387    2.1499   -0.0739 C.3       1 <0>        -0.1315
      6 C5          0.2335    0.6396    0.0594 C.3       1 <0>        -0.1150
      7 C6          0.8007   -0.0631   -1.1757 C.3       1 <0>        -0.1085
      8 H2          0.2812    0.2995   -2.0749 H         1 <0>         0.0945
      9 C7          2.2957    0.2401   -1.2934 C.3       1 <0>         0.0426
     10 N1          2.8403   -0.4346   -2.4792 N.4       1 <0>        -0.5393
     11 C8          2.0890   -0.0654   -3.6864 C.3       1 <0>         0.0297
     12 C9          2.7553   -0.6677   -4.8965 C.ar      1 <0>        -0.1027
     13 C10         3.7301    0.0413   -5.5733 C.ar      1 <0>        -0.1162
     14 C11         4.3447   -0.5132   -6.6805 C.ar      1 <0>        -0.0192
     15 C12         3.9771   -1.7722   -7.1170 C.ar      1 <0>        -0.6355
     16 C13         2.9986   -2.4790   -6.4433 C.ar      1 <0>        -0.0068
     17 C14         2.3877   -1.9267   -5.3331 C.ar      1 <0>        -0.1149
     18 S1          4.7554   -2.4759   -8.5326 S.o2      1 <0>         2.6294
     19 O1          6.0202   -1.8405   -8.6586 O.2       1 <0>        -0.9755
     20 O2          4.6196   -3.8852   -8.4122 O.2       1 <0>        -0.9405
     21 N2          3.8658   -2.0259   -9.8549 N.pl3     1 <0>        -1.1595
     22 C15         0.5955   -1.5734   -1.0424 C.3       1 <0>        -0.1732
     23 H3          4.1434    3.1395   -1.6402 H         1 <0>         0.0871
     24 H4          4.4037    1.5484   -2.4324 H         1 <0>         0.0503
     25 H5          4.5155    1.6909   -0.6452 H         1 <0>         0.0756
     26 H6          2.4533    2.0904    0.7076 H         1 <0>         0.0761
     27 H7          2.0812    3.5389   -0.2874 H         1 <0>         0.0849
     28 H8          0.0309    2.6551    0.8141 H         1 <0>         0.0809
     29 H9         -0.0809    2.5126   -0.9731 H         1 <0>         0.0694
     30 H10         0.7531    0.2769    0.9586 H         1 <0>         0.0758
     31 H11        -0.8414    0.4216    0.1440 H         1 <0>         0.0849
     32 H12         2.8383   -0.1476   -0.4186 H         1 <0>         0.1395
     33 H13         3.8923   -0.1438   -2.6157 H         1 <0>         0.4464
     34 H14         1.0595   -0.4447   -3.6078 H         1 <0>         0.1423
     35 H15         2.0696    1.0299   -3.7856 H         1 <0>         0.1410
     36 H16         4.0142    1.0267   -5.2349 H         1 <0>         0.1426
     37 H17         5.1090    0.0392   -7.2070 H         1 <0>         0.1540
     38 H18         2.7112   -3.4625   -6.7846 H         1 <0>         0.1557
     39 H19         1.6230   -2.4788   -4.8069 H         1 <0>         0.1433
     40 H20         4.3208   -2.4471  -10.7635 H         1 <0>         0.4230
     41 H21         3.8479   -0.9285   -9.9286 H         1 <0>         0.4107
     42 H22         1.0033   -2.0786   -1.9304 H         1 <0>         0.0508
     43 H23        -0.4794   -1.7913   -0.9578 H         1 <0>         0.0861
     44 H24         1.1151   -1.9361   -0.1432 H         1 <0>         0.0750
     45 H25         2.7758   -1.5242   -2.3431 H         1 <0>         0.4480
@<TRIPOS>BOND
     1    1    2 1
     2    1   23 1
     3    1   24 1
     4    1   25 1
     5    2    3 1
     6    2    9 1
     7    2    4 1
     8    4    5 1
     9    4   26 1
    10    4   27 1
    11    5    6 1
    12    5   28 1
    13    5   29 1
    14    6    7 1
    15    6   30 1
    16    6   31 1
    17    7    8 1
    18    7    9 1
    19    7   22 1
    20    9   10 1
    21    9   32 1
    22   10   11 1
    23   10   33 1
    24   10   45 1
    25   11   12 1
    26   11   34 1
    27   11   35 1
    28   12   17 ar
    29   12   13 ar
    30   13   14 ar
    31   13   36 1
    32   14   15 ar
    33   14   37 1
    34   15   16 ar
    35   15   18 1
    36   16   17 ar
    37   16   38 1
    38   17   39 1
    39   18   19 2
    40   18   20 2
    41   18   21 1
    42   21   40 1
    43   21   41 1
    44   22   42 1
    45   22   43 1
    46   22   44 1
@<TRIPOS>MOLECULE
ZINC36954823
   45    46     0     0     0
SMALL
USER_CHARGES

@<TRIPOS>ATOM
      1 C1         -0.1914    1.6166    0.2218 C.3       1 <0>        -0.1729
      2 C2         -0.0445    0.1022    0.0601 C.3       1 <0>        -0.1067
      3 H1          0.4950   -0.1141   -0.8619 H         1 <0>         0.0962
      4 C3         -1.4313   -0.5414    0.0025 C.3       1 <0>        -0.1129
      5 C4         -1.2845   -2.0557   -0.1592 C.3       1 <0>        -0.1314
      6 C5         -0.5081   -2.6228    1.0310 C.3       1 <0>        -0.1168
      7 C6          0.8787   -1.9791    1.0887 C.3       1 <0>        -0.1383
      8 C7          0.7318   -0.4648    1.2504 C.3       1 <0>         0.0232
      9 H2          0.1923   -0.2485    2.1724 H         1 <0>         0.1396
     10 N1          2.0634    0.1532    1.3057 N.4       1 <0>        -0.5083
     11 C8          2.7560   -0.2843    2.5251 C.3       1 <0>         0.0667
     12 H3          2.7708   -1.3736    2.5635 H         1 <0>         0.1535
     13 C9          4.1914    0.2452    2.5142 C.3       1 <0>        -0.1801
     14 C10         2.0321    0.2511    3.7335 C.ar      1 <0>        -0.0789
     15 C11         1.5165    1.5336    3.7183 C.ar      1 <0>        -0.1464
     16 C12         0.8525    2.0248    4.8268 C.ar      1 <0>        -0.0012
     17 C13         0.7037    1.2333    5.9503 C.ar      1 <0>        -0.6565
     18 C14         1.2185   -0.0495    5.9652 C.ar      1 <0>        -0.0012
     19 C15         1.8788   -0.5422    4.8551 C.ar      1 <0>        -0.1106
     20 S1         -0.1416    1.8598    7.3637 S.o2      1 <0>         2.6965
     21 O1          0.3296    1.1183    8.4805 O.2       1 <0>        -0.9491
     22 O2         -0.0507    3.2763    7.2965 O.2       1 <0>        -0.9505
     23 N2         -1.7433    1.4793    7.1847 N.pl3     1 <0>        -1.2469
     24 H4          0.7966    2.0751    0.2629 H         1 <0>         0.0496
     25 H5         -0.7445    2.0205   -0.6261 H         1 <0>         0.0883
     26 H6         -0.7310    1.8329    1.1439 H         1 <0>         0.0734
     27 H7         -1.9709   -0.3251    0.9245 H         1 <0>         0.0744
     28 H8         -1.9844   -0.1374   -0.8454 H         1 <0>         0.0863
     29 H9         -2.2725   -2.5143   -0.2003 H         1 <0>         0.0807
     30 H10        -0.7449   -2.2720   -1.0813 H         1 <0>         0.0713
     31 H11        -1.0477   -2.4065    1.9531 H         1 <0>         0.0737
     32 H12        -0.4034   -3.7016    0.9158 H         1 <0>         0.0859
     33 H13         1.4318   -2.3831    1.9366 H         1 <0>         0.0856
     34 H14         1.4183   -2.1954    0.1666 H         1 <0>         0.0890
     35 H15         2.5978   -0.1263    0.4967 H         1 <0>         0.4302
     36 H16         4.1771    1.3319    2.4306 H         1 <0>         0.0842
     37 H17         4.6914   -0.0415    3.4393 H         1 <0>         0.1111
     38 H18         4.7282   -0.1775    1.6650 H         1 <0>         0.0914
     39 H19         1.6327    2.1520    2.8405 H         1 <0>         0.1303
     40 H20         0.4503    3.0271    4.8152 H         1 <0>         0.1566
     41 H21         1.1026   -0.6677    6.8431 H         1 <0>         0.1584
     42 H22         2.2778   -1.5457    4.8654 H         1 <0>         0.1473
     43 H23        -2.0420    0.9955    6.3989 H         1 <0>         0.4155
     44 H24        -2.3828    1.7403    7.8658 H         1 <0>         0.4277
     45 H25         1.9679    1.1576    1.3152 H         1 <0>         0.4222
@<TRIPOS>BOND
     1    1    2 1
     2    1   24 1
     3    1   25 1
     4    1   26 1
     5    2    3 1
     6    2    8 1
     7    2    4 1
     8    4    5 1
     9    4   27 1
    10    4   28 1
    11    5    6 1
    12    5   29 1
    13    5   30 1
    14    6    7 1
    15    6   31 1
    16    6   32 1
    17    7    8 1
    18    7   33 1
    19    7   34 1
    20    8    9 1
    21    8   10 1
    22   10   11 1
    23   10   35 1
    24   10   45 1
    25   11   12 1
    26   11   13 1
    27   11   14 1
    28   13   36 1
    29   13   37 1
    30   13   38 1
    31   14   19 ar
    32   14   15 ar
    33   15   16 ar
    34   15   39 1
    35   16   17 ar
    36   16   40 1
    37   17   18 ar
    38   17   20 1
    39   18   19 ar
    40   18   41 1
    41   19   42 1
    42   20   21 2
    43   20   22 2
    44   20   23 1
    45   23   43 1
    46   23   44 1
@<TRIPOS>MOLECULE
ZINC42294402
   33    34     0     0     0
SMALL
USER_CHARGES

@<TRIPOS>ATOM
      1 C1         -0.3829    1.5874    0.2459 C.3       1 <0>        -0.1093
      2 C2         -0.1253    0.1032    0.2027 C.2       1 <0>         0.1753
      3 C3          0.0769   -0.6587   -0.9538 C.2       1 <0>         0.0380
      4 C4          0.2764   -1.9527   -0.5711 C.2       1 <0>         0.4233
      5 N1          0.1998   -1.9927    0.7869 N.pl3     1 <0>        -0.3516
      6 N2         -0.0473   -0.6910    1.2412 N.pl3     1 <0>        -0.3881
      7 C5          0.3536   -3.1844    1.6251 C.3       1 <0>         0.0608
      8 N3          0.5153   -3.0379   -1.4181 N.pl3     1 <0>        -0.6841
      9 C6          0.6916   -4.3798   -0.8573 C.3       1 <0>         0.1459
     10 C7          1.0809   -5.3358   -1.9552 C.ar      1 <0>        -0.1193
     11 C8          0.1033   -6.0068   -2.6660 C.ar      1 <0>        -0.0883
     12 C9          0.4598   -6.8834   -3.6734 C.ar      1 <0>        -0.0902
     13 C10         1.7951   -7.0893   -3.9703 C.ar      1 <0>        -0.0719
     14 C11         2.7729   -6.4178   -3.2588 C.ar      1 <0>        -0.0904
     15 C12         2.4152   -5.5373   -2.2551 C.ar      1 <0>        -0.0872
     16 Br1         2.2835   -8.2890   -5.3480 Br        1 <0>        -0.0276
     17 N4          0.0742   -0.1738   -2.2819 N.pl3     1 <0>        -0.8573
     18 H1          0.5663    2.1190    0.3137 H         1 <0>         0.1116
     19 H2         -0.9060    1.8920   -0.6605 H         1 <0>         0.1100
     20 H3         -0.9952    1.8247    1.1159 H         1 <0>         0.0986
     21 H4          1.4129   -3.3685    1.8040 H         1 <0>         0.1042
     22 H5         -0.1537   -3.0270    2.5769 H         1 <0>         0.1141
     23 H6         -0.0840   -4.0442    1.1179 H         1 <0>         0.1231
     24 H7          0.5645   -2.9028   -2.3773 H         1 <0>         0.4343
     25 H8          1.4755   -4.3571   -0.1003 H         1 <0>         0.0897
     26 H9         -0.2428   -4.7093   -0.4029 H         1 <0>         0.0886
     27 H10        -0.9392   -5.8462   -2.4339 H         1 <0>         0.1361
     28 H11        -0.3040   -7.4078   -4.2284 H         1 <0>         0.1418
     29 H12         3.8155   -6.5782   -3.4903 H         1 <0>         0.1415
     30 H13         3.1785   -5.0098   -1.7023 H         1 <0>         0.1349
     31 H14        -0.0777    0.7687   -2.4538 H         1 <0>         0.4146
     32 H15         0.2244   -0.7835   -3.0212 H         1 <0>         0.4079
     33 H16        -0.1460   -0.4233    2.1683 H         1 <0>         0.4710
@<TRIPOS>BOND
     1    1    2 1
     2    1   18 1
     3    1   19 1
     4    1   20 1
     5    2    6 2
     6    2    3 1
     7    3    4 2
     8    3   17 1
     9    4    5 1
    10    4    8 1
    11    5    6 1
    12    5    7 1
    13    6   33 1
    14    7   21 1
    15    7   22 1
    16    7   23 1
    17    8    9 1
    18    8   24 1
    19    9   10 1
    20    9   25 1
    21    9   26 1
    22   10   15 ar
    23   10   11 ar
    24   11   12 ar
    25   11   27 1
    26   12   13 ar
    27   12   28 1
    28   13   14 ar
    29   13   16 1
    30   14   15 ar
    31   14   29 1
    32   15   30 1
    33   17   31 1
    34   17   32 1
@<TRIPOS>MOLECULE
ZINC50953266
   37    38     0     0     0
SMALL
USER_CHARGES

@<TRIPOS>ATOM
      1 C1         -0.0184    1.5028    0.0103 C.3       1 <0>        -0.1242
      2 C2          0.0021   -0.0041    0.0020 C.ar      1 <0>        -0.1006
      3 C3          0.0060   -0.6969   -1.1913 C.ar      1 <0>         0.1419
      4 N1          0.0243   -2.0162   -1.2071 N.ar      1 <0>        -0.4325
      5 C4          0.0391   -2.7261   -0.0946 C.ar      1 <0>         0.1321
      6 C5          0.0364   -2.1077    1.1386 C.ar      1 <0>        -0.0812
      7 C6          0.0231   -0.7162    1.1984 C.ar      1 <0>         0.2226
      8 O1          0.0252   -0.0709    2.3926 O.3       1 <0>        -0.3159
      9 C7         -1.2469    0.2198    2.9751 C.3       1 <0>         0.0287
     10 C8          0.0534   -2.9265    2.4036 C.3       1 <0>        -0.1304
     11 C9          0.0587   -4.2309   -0.1724 C.3       1 <0>         0.1522
     12 N2         -1.2937   -4.7490    0.0485 N.pl3     1 <0>        -0.7176
     13 C10        -1.5250   -6.1148    0.0233 C.ar      1 <0>         0.4880
     14 C11        -0.4758   -7.0064   -0.2059 C.ar      1 <0>        -0.3355
     15 C12        -0.7533   -8.3611   -0.2219 C.ar      1 <0>         0.3001
     16 N3         -1.9987   -8.7701   -0.0205 N.ar      1 <0>        -0.5906
     17 C13        -2.9743   -7.9002    0.1946 C.ar      1 <0>         0.6300
     18 N4         -2.7485   -6.5952    0.2226 N.ar      1 <0>        -0.6166
     19 N5         -4.2609   -8.3667    0.4001 N.pl3     1 <0>        -0.8073
     20 Cl1         0.5143   -9.5134   -0.5030 Cl        1 <0>         0.0000
     21 H1          1.0042    1.8801    0.0026 H         1 <0>         0.1057
     22 H2         -0.5455    1.8639   -0.8728 H         1 <0>         0.0951
     23 H3         -0.5286    1.8543    0.9071 H         1 <0>         0.0932
     24 H4         -0.0064   -0.1526   -2.1241 H         1 <0>         0.2184
     25 H5         -1.1025    0.7356    3.9244 H         1 <0>         0.1240
     26 H6         -1.8191    0.8557    2.2995 H         1 <0>         0.0658
     27 H7         -1.7894   -0.7101    3.1457 H         1 <0>         0.0651
     28 H8          1.0850   -3.1100    2.7039 H         1 <0>         0.1084
     29 H9         -0.4642   -2.3838    3.1946 H         1 <0>         0.0962
     30 H10        -0.4484   -3.8780    2.2274 H         1 <0>         0.0947
     31 H11         0.4096   -4.5393   -1.1572 H         1 <0>         0.1059
     32 H12         0.7283   -4.6256    0.5919 H         1 <0>         0.1253
     33 H13        -2.0272   -4.1358    0.2124 H         1 <0>         0.4137
     34 H14         0.5296   -6.6466   -0.3674 H         1 <0>         0.1500
     35 H15        -4.4393   -9.3200    0.3855 H         1 <0>         0.4231
     36 H16        -4.9844   -7.7403    0.5586 H         1 <0>         0.4197
     37 H17         0.0266   -2.4773   -2.0604 H         1 <0>         0.4527
@<TRIPOS>BOND
     1    1    2 1
     2    1   21 1
     3    1   22 1
     4    1   23 1
     5    2    7 ar
     6    2    3 ar
     7    3    4 ar
     8    3   24 1
     9    4    5 ar
    10    4   37 1
    11    5    6 ar
    12    5   11 1
    13    6    7 ar
    14    6   10 1
    15    7    8 1
    16    8    9 1
    17    9   25 1
    18    9   26 1
    19    9   27 1
    20   10   28 1
    21   10   29 1
    22   10   30 1
    23   11   12 1
    24   11   31 1
    25   11   32 1
    26   12   13 1
    27   12   33 1
    28   13   18 ar
    29   13   14 ar
    30   14   15 ar
    31   14   34 1
    32   15   16 ar
    33   15   20 1
    34   16   17 ar
    35   17   18 ar
    36   17   19 1
    37   19   35 1
    38   19   36 1
@<TRIPOS>MOLECULE
ZINC58107134
   40    42     0     0     0
SMALL
USER_CHARGES

@<TRIPOS>ATOM
      1 C1         -0.0187    1.5258    0.0104 C.3       1 <0>        -0.1328
      2 C2          0.0021   -0.0041    0.0020 C.3       1 <0>        -0.0853
      3 H1         -1.0137   -0.3989    0.0221 H         1 <0>         0.1384
      4 C3          0.7456   -0.5168   -1.2098 C.ar      1 <0>        -0.1037
      5 C4          0.5310   -0.3870   -2.5642 C.ar      1 <0>        -0.0250
      6 C5          1.4003   -0.9816   -3.4617 C.ar      1 <0>        -0.1390
      7 C6          2.4828   -1.7051   -2.9951 C.ar      1 <0>        -0.1169
      8 C7          2.7008   -1.8373   -1.6377 C.ar      1 <0>         0.0916
      9 C8          1.8278   -1.2400   -0.7273 C.ar      1 <0>         0.1499
     10 N1          1.8323   -1.2286    0.6691 N.am      1 <0>        -0.6585
     11 C9          0.7988   -0.5301    1.1769 C.2       1 <0>         0.5320
     12 O1          0.5524   -0.3540    2.3514 O.2       1 <0>        -0.4669
     13 F1          3.7604   -2.5462   -1.1906 F         1 <0>        -0.1245
     14 C10         1.1678   -0.8416   -4.9440 C.3       1 <0>         0.1575
     15 H2          0.1282   -0.5679   -5.1245 H         1 <0>         0.1624
     16 C11         2.0723    0.2303   -5.4954 C.ar      1 <0>        -0.1748
     17 C12         3.2381   -0.1182   -6.1499 C.ar      1 <0>        -0.0943
     18 C13         4.0686    0.8646   -6.6555 C.ar      1 <0>        -0.1366
     19 C14         3.7348    2.1985   -6.5080 C.ar      1 <0>        -0.0517
     20 C15         2.5702    2.5520   -5.8548 C.ar      1 <0>        -0.1926
     21 C16         1.7324    1.5673   -5.3511 C.ar      1 <0>         0.1667
     22 O2          0.5832    1.9124   -4.7130 O.3       1 <0>        -0.3153
     23 C17         0.2971    3.3080   -4.6014 C.3       1 <0>         0.0214
     24 N2          1.4604   -2.1187   -5.6084 N.4       1 <0>        -0.6370
     25 H3          1.0039    1.9031    0.0027 H         1 <0>         0.0632
     26 H4         -0.5459    1.8868   -0.8726 H         1 <0>         0.0780
     27 H5         -0.5289    1.8773    0.9072 H         1 <0>         0.0812
     28 H6         -0.3153    0.1783   -2.9254 H         1 <0>         0.1521
     29 H7          3.1608   -2.1694   -3.6959 H         1 <0>         0.1400
     30 H8          2.5019   -1.6741    1.2115 H         1 <0>         0.4233
     31 H9          3.5010   -1.1592   -6.2664 H         1 <0>         0.1225
     32 H10         4.9798    0.5902   -7.1662 H         1 <0>         0.1382
     33 H11         4.3854    2.9644   -6.9035 H         1 <0>         0.1393
     34 H12         2.3100    3.5938   -5.7399 H         1 <0>         0.1427
     35 H13         1.0978    3.8000   -4.0492 H         1 <0>         0.0640
     36 H14         0.2214    3.7442   -5.5974 H         1 <0>         0.0646
     37 H15        -0.6461    3.4444   -4.0723 H         1 <0>         0.1115
     38 H16         2.4227   -2.3720   -5.4413 H         1 <0>         0.4297
     39 H17         0.8547   -2.8363   -5.2392 H         1 <0>         0.4424
     40 H18         1.3047   -2.0250   -6.6009 H         1 <0>         0.4424
@<TRIPOS>BOND
     1    1    2 1
     2    1   25 1
     3    1   26 1
     4    1   27 1
     5    2    3 1
     6    2   11 1
     7    2    4 1
     8    4    9 ar
     9    4    5 ar
    10    5    6 ar
    11    5   28 1
    12    6    7 ar
    13    6   14 1
    14    7    8 ar
    15    7   29 1
    16    8    9 ar
    17    8   13 1
    18    9   10 1
    19   10   11 am
    20   10   30 1
    21   11   12 2
    22   14   15 1
    23   14   16 1
    24   14   24 1
    25   16   21 ar
    26   16   17 ar
    27   17   18 ar
    28   17   31 1
    29   18   19 ar
    30   18   32 1
    31   19   20 ar
    32   19   33 1
    33   20   21 ar
    34   20   34 1
    35   21   22 1
    36   22   23 1
    37   23   35 1
    38   23   36 1
    39   23   37 1
    40   24   38 1
    41   24   39 1
    42   24   40 1
@<TRIPOS>MOLECULE
ZINC01576640
   42    44     0     0     0
SMALL
USER_CHARGES
4,5-dimethoxy-4,5-diphenyl-1H-imidazol-2-amine
@<TRIPOS>ATOM
      1 C1          1.0056    7.4052   -2.9143 C.3       1 <0>         0.0149
      2 O1          1.0169    6.7679   -1.6353 O.3       1 <0>        -0.3328
      3 C2         -0.0916    5.8943   -1.4114 C.3       1 <0>         0.3853
      4 C3         -0.0705    5.3471    0.0297 C.3       1 <0>         0.3768
      5 C4         -1.9774    6.5385   -0.2550 C.cat     1 <0>         0.7397
      6 N1         -1.3604    6.6391   -1.4716 N.pl3     1 <0>        -0.6990
      7 N2         -3.1892    7.1277    0.0180 N.pl3     1 <0>        -0.8003
      8 C5         -0.0501    3.8402    0.0223 C.ar      1 <0>        -0.1426
      9 C6          1.1563    3.1654    0.0076 C.ar      1 <0>        -0.0751
     10 C7          1.1750    1.7832    0.0004 C.ar      1 <0>        -0.1095
     11 C8         -0.0126    1.0758    0.0080 C.ar      1 <0>        -0.0873
     12 C9         -1.2190    1.7506    0.0173 C.ar      1 <0>        -0.1117
     13 C10        -1.2377    3.1328    0.0299 C.ar      1 <0>        -0.0939
     14 O2          1.0569    5.8586    0.7433 O.3       1 <0>        -0.3288
     15 C11         1.1252    5.4316    2.1053 C.3       1 <0>         0.0106
     16 C12        -0.0903    4.7649   -2.4091 C.ar      1 <0>        -0.1403
     17 C13         1.1048    4.1942   -2.8055 C.ar      1 <0>        -0.0733
     18 C14         1.1057    3.1552   -3.7173 C.ar      1 <0>        -0.1103
     19 C15        -0.0878    2.6933   -4.2401 C.ar      1 <0>        -0.0886
     20 C16        -1.2825    3.2672   -3.8474 C.ar      1 <0>        -0.1133
     21 C17        -1.2837    4.3033   -2.9322 C.ar      1 <0>        -0.0951
     22 H1          1.0295    6.6479   -3.6978 H         1 <0>         0.0629
     23 H2          0.0996    8.0030   -3.0143 H         1 <0>         0.0469
     24 H3          1.8789    8.0509   -3.0062 H         1 <0>         0.1118
     25 H4         -1.7006    7.1195   -2.2426 H         1 <0>         0.4518
     26 H5         -3.6441    7.6416   -0.6675 H         1 <0>         0.4405
     27 H6         -3.5894    7.0294    0.8961 H         1 <0>         0.4402
     28 H7          2.0841    3.7181    0.0014 H         1 <0>         0.1352
     29 H8          2.1175    1.2560   -0.0115 H         1 <0>         0.1355
     30 H9          0.0021   -0.0041    0.0020 H         1 <0>         0.1330
     31 H10        -2.1469    1.1980    0.0188 H         1 <0>         0.1311
     32 H11        -2.1802    3.6600    0.0410 H         1 <0>         0.1139
     33 H12         0.2320    5.7627    2.6351 H         1 <0>         0.0467
     34 H13         1.1875    4.3441    2.1425 H         1 <0>         0.0658
     35 H14         2.0083    5.8625    2.5773 H         1 <0>         0.1135
     36 H15         2.0374    4.5578   -2.4002 H         1 <0>         0.1337
     37 H16         2.0391    2.7066   -4.0239 H         1 <0>         0.1345
     38 H17        -0.0868    1.8839   -4.9551 H         1 <0>         0.1322
     39 H18        -2.2149    2.9064   -4.2558 H         1 <0>         0.1306
     40 H19        -2.2171    4.7519   -2.6257 H         1 <0>         0.1154
     41 N3         -1.3246    5.8418    0.6204 N.pl3     1 <0>        -0.6684
     42 H20        -1.6355    5.6615    1.5822 H         1 <0>         0.4678
@<TRIPOS>BOND
     1    1    2 1
     2    1   22 1
     3    1   23 1
     4    1   24 1
     5    2    3 1
     6    3    6 1
     7    3    4 1
     8    3   16 1
     9    4    8 1
    10    4   14 1
    11    4   41 1
    12    5    6 1
    13    5    7 1
    14    5   41 2
    15    6   25 1
    16    7   26 1
    17    7   27 1
    18    8   13 ar
    19    8    9 ar
    20    9   10 ar
    21    9   28 1
    22   10   11 ar
    23   10   29 1
    24   11   12 ar
    25   11   30 1
    26   12   13 ar
    27   12   31 1
    28   13   32 1
    29   14   15 1
    30   15   33 1
    31   15   34 1
    32   15   35 1
    33   16   21 ar
    34   16   17 ar
    35   17   18 ar
    36   17   36 1
    37   18   19 ar
    38   18   37 1
    39   19   20 ar
    40   19   38 1
    41   20   21 ar
    42   20   39 1
    43   21   40 1
    44   41   42 1
@<TRIPOS>MOLECULE
ZINC37615882
   37    39     0     0     0
SMALL
USER_CHARGES

@<TRIPOS>ATOM
      1 C1         -0.0187    1.5258    0.0104 C.3       1 <0>        -0.1846
      2 C2          0.0021   -0.0041    0.0020 C.3       1 <0>         0.1973
      3 C3          0.7309   -0.5033    1.2229 C.2       1 <0>         0.1558
      4 N1          0.3222   -0.3439    2.5005 N.pl3     1 <0>        -0.5608
      5 H1         -0.4839    0.1078    2.7957 H         1 <0>         0.4211
      6 C4          1.2651   -0.9430    3.3047 C.2       1 <0>         0.0583
      7 C5          2.2174   -1.4469    2.4738 C.2       1 <0>         0.0227
      8 N2          1.8568   -1.1648    1.2165 N.2       1 <0>        -0.4195
      9 C6          1.2469   -1.0230    4.7815 C.ar      1 <0>        -0.0263
     10 C7          0.1922   -0.4587    5.5006 C.ar      1 <0>        -0.0574
     11 C8          0.1806   -0.5363    6.8777 C.ar      1 <0>        -0.0995
     12 C9          1.2130   -1.1721    7.5468 C.ar      1 <0>         0.0208
     13 C10         2.2620   -1.7333    6.8388 C.ar      1 <0>        -0.0335
     14 C11         2.2811   -1.6677    5.4608 C.ar      1 <0>        -0.0207
     15 N3          3.3620   -2.4108    7.5613 N.pl3     1 <0>         0.0250
     16 O1          4.2787   -2.9012    6.9443 O.2       1 <0>        -0.1448
     17 O2          3.3438   -2.4737    8.7685 O.3       1 <0>        -0.1192
     18 Cl1         1.1919   -1.2654    9.2802 Cl        1 <0>         0.0177
     19 C12         0.7182   -0.4975   -1.2568 C.3       1 <0>        -0.1862
     20 C13         1.5265    0.5260   -2.0568 C.3       1 <0>        -0.1390
     21 C14         0.1986    0.0014   -2.6066 C.3       1 <0>        -0.1773
     22 N4         -1.3761   -0.5125    0.0124 N.4       1 <0>        -0.6353
     23 H2          1.0039    1.9031    0.0027 H         1 <0>         0.1197
     24 H3         -0.5459    1.8868   -0.8726 H         1 <0>         0.1006
     25 H4         -0.5289    1.8773    0.9072 H         1 <0>         0.0825
     26 H5          3.1052   -1.9829    2.7754 H         1 <0>         0.1941
     27 H6         -0.6131    0.0380    4.9799 H         1 <0>         0.1425
     28 H7         -0.6350   -0.1000    7.4352 H         1 <0>         0.1660
     29 H8          3.0973   -2.1104    4.9093 H         1 <0>         0.1708
     30 H9          1.1015   -1.5168   -1.2106 H         1 <0>         0.1448
     31 H10         1.5480    1.5509   -1.6863 H         1 <0>         0.1118
     32 H11         2.4418    0.1802   -2.5370 H         1 <0>         0.1176
     33 H12         0.2403   -0.6897   -3.4485 H         1 <0>         0.1193
     34 H13        -0.6535    0.6811   -2.5978 H         1 <0>         0.1025
     35 H14        -1.8641   -0.1783   -0.8050 H         1 <0>         0.4435
     36 H15        -1.3624   -1.5214    0.0069 H         1 <0>         0.4419
     37 H16        -1.8484   -0.1871    0.8426 H         1 <0>         0.4278
@<TRIPOS>BOND
     1    1    2 1
     2    1   23 1
     3    1   24 1
     4    1   25 1
     5    2    3 1
     6    2   19 1
     7    2   22 1
     8    3    8 2
     9    3    4 1
    10    4    5 1
    11    4    6 1
    12    6    7 2
    13    6    9 1
    14    7    8 1
    15    7   26 1
    16    9   14 ar
    17    9   10 ar
    18   10   11 ar
    19   10   27 1
    20   11   12 ar
    21   11   28 1
    22   12   13 ar
    23   12   18 1
    24   13   14 ar
    25   13   15 1
    26   14   29 1
    27   15   16 2
    28   15   17 1
    29   19   21 1
    30   19   20 1
    31   19   30 1
    32   20   21 1
    33   20   31 1
    34   20   32 1
    35   21   33 1
    36   21   34 1
    37   22   35 1
    38   22   36 1
    39   22   37 1
@<TRIPOS>MOLECULE
ZINC40687547
   43    46     0     0     0
SMALL
USER_CHARGES

@<TRIPOS>ATOM
      1 C1         -4.7828   -2.9181    2.6975 C.3       1 <0>        -0.1080
      2 C2         -3.5041   -3.2407    1.9681 C.ar      1 <0>         0.1677
      3 C3         -3.5667   -3.9517    0.7715 C.ar      1 <0>        -0.1694
      4 C4         -2.4179   -4.2523    0.0968 C.ar      1 <0>        -0.0464
      5 C5         -1.1941   -3.8249    0.6458 C.ar      1 <0>        -0.1021
      6 C6          0.0277   -4.0968    0.0084 C.ar      1 <0>        -0.0750
      7 C7          1.1921   -3.6672    0.5689 C.ar      1 <0>        -0.1126
      8 C8          1.1912   -2.9605    1.7685 C.ar      1 <0>        -0.0811
      9 C9          0.0231   -2.6777    2.4176 C.ar      1 <0>         0.1016
     10 C10        -1.2029   -3.1061    1.8660 C.ar      1 <0>         0.1372
     11 N1         -2.3627   -2.8403    2.4733 N.ar      1 <0>        -0.4765
     12 O1          0.0416   -1.9875    3.5873 O.3       1 <0>        -0.2259
     13 C11        -0.0675   -2.6896    4.7428 C.ar      1 <0>         0.3444
     14 C12        -0.1631   -2.0280    5.9667 C.ar      1 <0>         0.0985
     15 C13        -0.2735   -2.7989    7.1266 C.ar      1 <0>         0.3307
     16 N2         -0.2832   -4.1250    7.0199 N.ar      1 <0>        -0.5436
     17 C14        -0.1905   -4.7098    5.8428 C.ar      1 <0>         0.3192
     18 N3         -0.0904   -4.0187    4.7252 N.ar      1 <0>        -0.5271
     19 N4         -0.3713   -2.1898    8.3728 N.pl3     1 <0>        -0.6216
     20 C15        -0.3534   -2.9647    9.5300 C.ar      1 <0>         0.3038
     21 C16         0.2803   -4.2070    9.5495 C.ar      1 <0>        -0.1512
     22 C17         0.2759   -4.9432   10.7156 C.ar      1 <0>         0.1489
     23 N5         -0.3178   -4.4860   11.8023 N.ar      1 <0>        -0.4769
     24 C18        -0.9279   -3.3158   11.8241 C.ar      1 <0>         0.1597
     25 C19        -0.9636   -2.5161   10.7012 C.ar      1 <0>        -0.1857
     26 N6         -0.1483   -0.6265    6.0315 N.pl3     1 <0>        -0.8555
     27 H1         -5.1679   -1.9597    2.3492 H         1 <0>         0.0845
     28 H2         -5.5189   -3.6980    2.5026 H         1 <0>         0.0809
     29 H3         -4.5864   -2.8632    3.7682 H         1 <0>         0.0740
     30 H4         -4.5224   -4.2650    0.3781 H         1 <0>         0.1425
     31 H5         -2.4475   -4.8029   -0.8318 H         1 <0>         0.1467
     32 H6          0.0436   -4.6446   -0.9222 H         1 <0>         0.1399
     33 H7          2.1296   -3.8781    0.0760 H         1 <0>         0.1405
     34 H8          2.1284   -2.6313    2.1924 H         1 <0>         0.1377
     35 H9         -0.2011   -5.7885    5.7920 H         1 <0>         0.2093
     36 H10        -0.4520   -1.2252    8.4363 H         1 <0>         0.4325
     37 H11         0.7673   -4.5873    8.6637 H         1 <0>         0.1971
     38 H12         0.7641   -5.9062   10.7400 H         1 <0>         0.2079
     39 H13        -1.4020   -2.9787   12.7340 H         1 <0>         0.2083
     40 H14        -1.4610   -1.5577   10.7270 H         1 <0>         0.1809
     41 H15        -0.0708   -0.1041    5.2178 H         1 <0>         0.4189
     42 H16        -0.2156   -0.1799    6.8899 H         1 <0>         0.3966
     43 H17        -0.3056   -5.0259   12.6081 H         1 <0>         0.4489
@<TRIPOS>BOND
     1    1    2 1
     2    1   27 1
     3    1   28 1
     4    1   29 1
     5    2   11 ar
     6    2    3 ar
     7    3    4 ar
     8    3   30 1
     9    4    5 ar
    10    4   31 1
    11    5   10 ar
    12    5    6 ar
    13    6    7 ar
    14    6   32 1
    15    7    8 ar
    16    7   33 1
    17    8    9 ar
    18    8   34 1
    19    9   10 ar
    20    9   12 1
    21   10   11 ar
    22   12   13 1
    23   13   18 ar
    24   13   14 ar
    25   14   15 ar
    26   14   26 1
    27   15   16 ar
    28   15   19 1
    29   16   17 ar
    30   17   18 ar
    31   17   35 1
    32   19   20 1
    33   19   36 1
    34   20   25 ar
    35   20   21 ar
    36   21   22 ar
    37   21   37 1
    38   22   23 ar
    39   22   38 1
    40   23   24 ar
    41   23   43 1
    42   24   25 ar
    43   24   39 1
    44   25   40 1
    45   26   41 1
    46   26   42 1
@<TRIPOS>MOLECULE
ZINC51146371
   45    47     0     0     0
SMALL
USER_CHARGES

@<TRIPOS>ATOM
      1 C1         -0.5541    1.9441    0.4667 C.3       1 <0>        -0.1753
      2 C2         -0.4615    0.4184    0.3998 C.3       1 <0>        -0.1439
      3 C3         -1.8705   -0.1779    0.3861 C.3       1 <0>         0.0236
      4 H1         -2.4296    0.1724    1.2537 H         1 <0>         0.1417
      5 C4         -1.7886   -1.7188    0.4014 C.3       1 <0>        -0.1361
      6 C5         -2.9415   -2.1396   -0.5476 C.3       1 <0>        -0.1372
      7 C6         -2.8962   -1.0155   -1.6125 C.3       1 <0>        -0.0231
      8 N1         -2.5688    0.2135   -0.8521 N.4       1 <0>        -0.3864
      9 C7         -3.8038    0.9346   -0.5164 C.3       1 <0>         0.0827
     10 C8         -4.4505    1.4390   -1.7807 C.ar      1 <0>         0.3091
     11 N2         -4.1269    2.6350   -2.2391 N.ar      1 <0>        -0.5472
     12 C9         -4.6590    3.1341   -3.3428 C.ar      1 <0>         0.4950
     13 C10        -5.6115    2.3623   -4.0639 C.ar      1 <0>        -0.2030
     14 C11        -6.3301    2.6788   -5.2858 C.2       1 <0>        -0.1077
     15 C12        -7.1916    1.7828   -5.7896 C.2       1 <0>        -0.1161
     16 S1         -7.0994    0.4238   -4.6392 S.3       1 <0>         0.1497
     17 C13        -5.9062    1.0961   -3.5129 C.ar      1 <0>         0.1275
     18 N3         -5.3230    0.6746   -2.4079 N.ar      1 <0>        -0.4946
     19 C14        -8.0365    1.8975   -7.0322 C.3       1 <0>        -0.0813
     20 C15        -6.1106    3.9987   -5.9791 C.3       1 <0>        -0.1173
     21 N4         -4.2939    4.3912   -3.7897 N.pl3     1 <0>        -0.5502
     22 N5         -3.7736    5.3025   -2.9151 N.3       1 <0>        -0.5998
     23 H2          0.4497    2.3689    0.4765 H         1 <0>         0.0816
     24 H3         -1.0966    2.3137   -0.4035 H         1 <0>         0.0559
     25 H4         -1.0813    2.2367    1.3748 H         1 <0>         0.0714
     26 H5          0.0657    0.1258   -0.5083 H         1 <0>         0.0862
     27 H6          0.0810    0.0488    1.2700 H         1 <0>         0.1134
     28 H7         -0.8276   -2.0576    0.0142 H         1 <0>         0.1012
     29 H8         -1.9573   -2.1038    1.4071 H         1 <0>         0.1142
     30 H9         -2.7416   -3.1120   -0.9975 H         1 <0>         0.1170
     31 H10        -3.8972   -2.1426   -0.0234 H         1 <0>         0.0994
     32 H11        -2.1222   -1.2237   -2.3513 H         1 <0>         0.1292
     33 H12        -3.8670   -0.9127   -2.0973 H         1 <0>         0.1456
     34 H13        -4.4890    0.2613   -0.0013 H         1 <0>         0.1540
     35 H14        -3.5671    1.7781    0.1322 H         1 <0>         0.1540
     36 H15        -7.4820    1.5076   -7.8858 H         1 <0>         0.0916
     37 H16        -8.9540    1.3235   -6.9020 H         1 <0>         0.0848
     38 H17        -8.2846    2.9443   -7.2075 H         1 <0>         0.0911
     39 H18        -5.2275    3.9327   -6.6147 H         1 <0>         0.0808
     40 H19        -6.9811    4.2373   -6.5902 H         1 <0>         0.0883
     41 H20        -5.9643    4.7806   -5.2340 H         1 <0>         0.0657
     42 H21        -4.4073    4.6257   -4.7241 H         1 <0>         0.4219
     43 H22        -3.5558    6.1694   -3.3832 H         1 <0>         0.3688
     44 H23        -4.3999    5.4577   -2.1395 H         1 <0>         0.3491
     45 H24        -1.9702    0.8073   -1.4063 H         1 <0>         0.4247
@<TRIPOS>BOND
     1    1    2 1
     2    1   23 1
     3    1   24 1
     4    1   25 1
     5    2    3 1
     6    2   26 1
     7    2   27 1
     8    3    4 1
     9    3    8 1
    10    3    5 1
    11    5    6 1
    12    5   28 1
    13    5   29 1
    14    6    7 1
    15    6   30 1
    16    6   31 1
    17    7    8 1
    18    7   32 1
    19    7   33 1
    20    8    9 1
    21    8   45 1
    22    9   10 1
    23    9   34 1
    24    9   35 1
    25   10   18 ar
    26   10   11 ar
    27   11   12 ar
    28   12   13 ar
    29   12   21 1
    30   13   17 ar
    31   13   14 1
    32   14   15 2
    33   14   20 1
    34   15   16 1
    35   15   19 1
    36   16   17 1
    37   17   18 ar
    38   19   36 1
    39   19   37 1
    40   19   38 1
    41   20   39 1
    42   20   40 1
    43   20   41 1
    44   21   22 1
    45   21   42 1
    46   22   43 1
    47   22   44 1
@<TRIPOS>MOLECULE
ZINC05291066
   38    39     0     0     0
SMALL
USER_CHARGES

@<TRIPOS>ATOM
      1 C1         -0.0365    1.5159    0.0062 C.3       1 <0>        -0.1717
      2 C2         -0.0035   -0.0138    0.0036 C.3       1 <0>         0.1252
      3 C3         -1.4131   -0.5466    0.0214 C.ar      1 <0>        -0.0745
      4 C4         -2.1466   -0.6001   -1.1491 C.ar      1 <0>        -0.1333
      5 C5         -3.4395   -1.0889   -1.1328 C.ar      1 <0>        -0.0098
      6 C6         -3.9989   -1.5245    0.0539 C.ar      1 <0>        -0.6602
      7 C7         -3.2651   -1.4718    1.2242 C.ar      1 <0>        -0.0044
      8 C8         -1.9706   -0.9871    1.2072 C.ar      1 <0>        -0.1158
      9 S1         -5.6473   -2.1464    0.0749 S.o2      1 <0>         2.6980
     10 O1         -6.1268   -1.9814    1.4024 O.2       1 <0>        -0.9508
     11 O2         -6.3085   -1.5826   -1.0495 O.2       1 <0>        -0.9497
     12 N1         -5.5588   -3.7775   -0.1970 N.pl3     1 <0>        -1.2451
     13 N2          0.6816   -0.4854   -1.2023 N.pl3     1 <0>        -0.5356
     14 C9          1.7512   -1.2069   -1.0986 C.2       1 <0>         0.3701
     15 C10         2.3777   -1.7736   -2.3062 C.ar      1 <0>        -0.2039
     16 C11         3.4625   -2.6466   -2.1912 C.ar      1 <0>        -0.0175
     17 C12         4.0439   -3.1730   -3.3245 C.ar      1 <0>        -0.1278
     18 C13         3.5576   -2.8407   -4.5782 C.ar      1 <0>        -0.0233
     19 C14         2.4862   -1.9786   -4.7060 C.ar      1 <0>        -0.1438
     20 C15         1.8851   -1.4445   -3.5765 C.ar      1 <0>         0.1601
     21 O3          0.8282   -0.6024   -3.7005 O.3       1 <0>        -0.4952
     22 H1          0.9830    1.9013   -0.0067 H         1 <0>         0.0838
     23 H2         -0.5697    1.8693   -0.8764 H         1 <0>         0.0800
     24 H3         -0.5463    1.8668    0.9034 H         1 <0>         0.1061
     25 H4          0.5296   -0.3672    0.8862 H         1 <0>         0.1398
     26 H5         -1.7096   -0.2598   -2.0762 H         1 <0>         0.1305
     27 H6         -4.0128   -1.1300   -2.0471 H         1 <0>         0.1535
     28 H7         -3.7022   -1.8119    2.1515 H         1 <0>         0.1563
     29 H8         -1.3960   -0.9494    2.1209 H         1 <0>         0.1458
     30 H9         -6.2267   -4.3695    0.1829 H         1 <0>         0.4271
     31 H10        -4.8390   -4.1410   -0.7361 H         1 <0>         0.4165
     32 H11         2.1846   -1.3935   -0.1272 H         1 <0>         0.2099
     33 H12         3.8451   -2.9081   -1.2158 H         1 <0>         0.1566
     34 H13         4.8826   -3.8475   -3.2347 H         1 <0>         0.1542
     35 H14         4.0192   -3.2579   -5.4610 H         1 <0>         0.1533
     36 H15         2.1130   -1.7240   -5.6870 H         1 <0>         0.1544
     37 H16         1.0745    0.3299   -3.7724 H         1 <0>         0.4120
     38 H17         0.3337   -0.2571   -2.0785 H         1 <0>         0.4293
@<TRIPOS>BOND
     1    1    2 1
     2    1   22 1
     3    1   23 1
     4    1   24 1
     5    2    3 1
     6    2   13 1
     7    2   25 1
     8    3    8 ar
     9    3    4 ar
    10    4    5 ar
    11    4   26 1
    12    5    6 ar
    13    5   27 1
    14    6    7 ar
    15    6    9 1
    16    7    8 ar
    17    7   28 1
    18    8   29 1
    19    9   10 2
    20    9   11 2
    21    9   12 1
    22   12   30 1
    23   12   31 1
    24   13   14 2
    25   13   38 1
    26   14   15 1
    27   14   32 1
    28   15   20 ar
    29   15   16 ar
    30   16   17 ar
    31   16   33 1
    32   17   18 ar
    33   17   34 1
    34   18   19 ar
    35   18   35 1
    36   19   20 ar
    37   19   36 1
    38   20   21 1
    39   21   37 1
@<TRIPOS>MOLECULE
ZINC31973832
   35    38     0     0     0
SMALL
USER_CHARGES
[2-(2-thienyl)-5,6,7,8-tetrahydroimidazo[2,1-b][1,3]benzothiazol-1-yl]methanamine
@<TRIPOS>ATOM
      1 C1         -1.9476   11.0005    0.9120 C.2       1 <0>        -0.1633
      2 C2         -1.6816    9.8521    0.1963 C.2       1 <0>        -0.0861
      3 C3         -1.9326    8.6402    0.7808 C.2       1 <0>        -0.1351
      4 S1         -2.5461    9.1260    2.3856 S.3       1 <0>         0.0461
      5 C4         -2.4371   10.8950    2.1730 C.2       1 <0>        -0.1326
      6 C5         -1.7396    7.2815    0.2290 C.2       1 <0>         0.1960
      7 C6         -1.3514    6.1846    0.9276 C.2       1 <0>        -0.1069
      8 N1         -1.2936    5.1185    0.0353 N.pl3     1 <0>        -0.4109
      9 C7         -0.9788    3.7645    0.0914 C.2       1 <0>         0.0183
     10 C8         -1.0497    3.0531   -1.0399 C.2       1 <0>        -0.1209
     11 S2         -1.5618    4.2383   -2.2567 S.3       1 <0>         0.1943
     12 C9         -1.6568    5.6456   -1.1731 C.2       1 <0>         0.2122
     13 N2         -1.9182    6.9151   -1.0583 N.2       1 <0>        -0.4246
     14 C10        -0.7628    1.5982   -1.2306 C.3       1 <0>        -0.0473
     15 C11        -0.0127    1.0858    0.0080 C.3       1 <0>        -0.1182
     16 C12        -0.7369    1.5834    1.2626 C.3       1 <0>        -0.1240
     17 C13        -0.5633    3.0953    1.3996 C.3       1 <0>        -0.0550
     18 C14        -1.0406    6.1307    2.4013 C.3       1 <0>         0.0874
     19 N3          0.3862    6.4101    2.6113 N.4       1 <0>        -0.6856
     20 H1         -1.7639   11.9714    0.4760 H         1 <0>         0.1492
     21 H2         -1.2863    9.9080   -0.8071 H         1 <0>         0.1452
     22 H3         -2.6945   11.6796    2.8691 H         1 <0>         0.1983
     23 H4         -1.7092    1.0506   -1.3508 H         1 <0>         0.1043
     24 H5         -0.1433    1.4613   -2.1292 H         1 <0>         0.1025
     25 H6          0.0035   -0.0140   -0.0021 H         1 <0>         0.0920
     26 H7          1.0188    1.4678   -0.0039 H         1 <0>         0.0747
     27 H8         -1.8085    1.3472    1.1853 H         1 <0>         0.0788
     28 H9         -0.3154    1.0884    2.1499 H         1 <0>         0.0881
     29 H10         0.4900    3.3297    1.6129 H         1 <0>         0.0828
     30 H11        -1.1952    3.4683    2.2191 H         1 <0>         0.0791
     31 H12        -1.6434    6.8831    2.9309 H         1 <0>         0.1471
     32 H13        -1.2794    5.1298    2.7900 H         1 <0>         0.1401
     33 H14         0.6131    6.3708    3.6869 H         1 <0>         0.4631
     34 H15         0.6249    7.4111    2.2226 H         1 <0>         0.4600
     35 H16         0.9890    5.6577    2.0816 H         1 <0>         0.4510
@<TRIPOS>BOND
     1    1    5 2
     2    1    2 1
     3    1   20 1
     4    2    3 2
     5    2   21 1
     6    3    4 1
     7    3    6 1
     8    4    5 1
     9    5   22 1
    10    6   13 1
    11    6    7 2
    12    7    8 1
    13    7   18 1
    14    8   12 1
    15    8    9 1
    16    9   17 1
    17    9   10 2
    18   10   11 1
    19   10   14 1
    20   11   12 1
    21   12   13 2
    22   14   15 1
    23   14   23 1
    24   14   24 1
    25   15   16 1
    26   15   25 1
    27   15   26 1
    28   16   17 1
    29   16   27 1
    30   16   28 1
    31   17   29 1
    32   17   30 1
    33   18   19 1
    34   18   31 1
    35   18   32 1
    36   19   33 1
    37   19   34 1
    38   19   35 1
@<TRIPOS>MOLECULE
ZINC37566160
   46    49     0     0     0
SMALL
USER_CHARGES

@<TRIPOS>ATOM
      1 C1         -0.0166    1.3756    0.0096 C.ar      1 <0>        -0.1084
      2 C2          1.1688    2.0866    0.0021 C.ar      1 <0>        -0.1155
      3 C3          2.3738    1.4106   -0.0130 C.ar      1 <0>        -0.0868
      4 C4          2.3938    0.0283   -0.0210 C.ar      1 <0>        -0.1464
      5 C5          1.2108   -0.6892   -0.0136 C.ar      1 <0>        -0.1261
      6 C6          0.0021   -0.0041    0.0020 C.ar      1 <0>        -0.0944
      7 C7          1.8741   -2.0504   -0.0277 C.3       1 <0>        -0.0669
      8 C8          3.1811   -1.2572   -0.0359 C.3       1 <0>        -0.0509
      9 H1          3.7780   -1.4050    0.8640 H         1 <0>         0.1039
     10 C9          3.9942   -1.4502   -1.3175 C.3       1 <0>         0.1278
     11 N1          5.2750   -0.7500   -1.1933 N.am      1 <0>        -0.6961
     12 C10         6.1613   -0.7813   -2.2082 C.2       1 <0>         0.5073
     13 O1          5.8986   -1.3891   -3.2243 O.2       1 <0>        -0.5247
     14 C11         7.4788   -0.0610   -2.0804 C.3       1 <0>         0.0035
     15 H2          7.3068    1.0016   -1.9089 H         1 <0>         0.1662
     16 C12         8.2963   -0.6588   -0.9123 C.3       1 <0>        -0.1346
     17 C13         9.7575   -0.5892   -1.4560 C.3       1 <0>        -0.0932
     18 H3         10.4317   -1.2818   -0.9522 H         1 <0>         0.1382
     19 C14        10.2055    0.8676   -1.3229 C.3       1 <0>        -0.1298
     20 C15        11.4357    1.1333   -2.1876 C.3       1 <0>        -0.1303
     21 C16        11.0672    0.8907   -3.6550 C.3       1 <0>        -0.1321
     22 C17        10.6837   -0.5795   -3.8223 C.3       1 <0>        -0.1399
     23 C18         9.5137   -0.9612   -2.9329 C.3       1 <0>         0.0338
     24 H4          9.3270   -2.0328   -3.0031 H         1 <0>         0.1394
     25 N2          8.2802   -0.2511   -3.3101 N.4       1 <0>        -0.5002
     26 H5         -0.9599    1.9013    0.0259 H         1 <0>         0.1302
     27 H6          1.1532    3.1665    0.0077 H         1 <0>         0.1301
     28 H7          3.3017    1.9631   -0.0189 H         1 <0>         0.1144
     29 H8         -0.9273   -0.5541    0.0083 H         1 <0>         0.1223
     30 H9          1.7137   -2.6310    0.8807 H         1 <0>         0.1037
     31 H10         1.6960   -2.6207   -0.9394 H         1 <0>         0.1001
     32 H11         4.1752   -2.5133   -1.4764 H         1 <0>         0.0890
     33 H12         3.4395   -1.0456   -2.1641 H         1 <0>         0.0853
     34 H13         5.4851   -0.2638   -0.3807 H         1 <0>         0.4118
     35 H14         8.1881   -0.0521   -0.0133 H         1 <0>         0.1250
     36 H15         8.0024   -1.6910   -0.7221 H         1 <0>         0.1062
     37 H16         9.3948    1.5233   -1.6404 H         1 <0>         0.0617
     38 H17        10.4474    1.0753   -0.2805 H         1 <0>         0.0916
     39 H18        11.7578    2.1664   -2.0575 H         1 <0>         0.0815
     40 H19        12.2401    0.4578   -1.8963 H         1 <0>         0.0797
     41 H20        10.2228    1.5230   -3.9298 H         1 <0>         0.0598
     42 H21        11.9226    1.1207   -4.2902 H         1 <0>         0.0933
     43 H22        10.4161   -0.7629   -4.8629 H         1 <0>         0.0903
     44 H23        11.5374   -1.2038   -3.5585 H         1 <0>         0.1145
     45 H24         7.7589   -0.8010   -3.9764 H         1 <0>         0.4367
     46 H25         8.5101    0.6460   -3.7106 H         1 <0>         0.4289
@<TRIPOS>BOND
     1    1    6 ar
     2    1    2 ar
     3    1   26 1
     4    2    3 ar
     5    2   27 1
     6    3    4 ar
     7    3   28 1
     8    4    8 1
     9    4    5 ar
    10    5    6 ar
    11    5    7 1
    12    6   29 1
    13    7    8 1
    14    7   30 1
    15    7   31 1
    16    8    9 1
    17    8   10 1
    18   10   11 1
    19   10   32 1
    20   10   33 1
    21   11   12 am
    22   11   34 1
    23   12   13 2
    24   12   14 1
    25   14   15 1
    26   14   25 1
    27   14   16 1
    28   16   17 1
    29   16   35 1
    30   16   36 1
    31   17   18 1
    32   17   23 1
    33   17   19 1
    34   19   20 1
    35   19   37 1
    36   19   38 1
    37   20   21 1
    38   20   39 1
    39   20   40 1
    40   21   22 1
    41   21   41 1
    42   21   42 1
    43   22   23 1
    44   22   43 1
    45   22   44 1
    46   23   24 1
    47   23   25 1
    48   25   45 1
    49   25   46 1
@<TRIPOS>MOLECULE
ZINC44684877
   48    51     0     0     0
SMALL
USER_CHARGES

@<TRIPOS>ATOM
      1 C1         -0.3030    1.5261   -0.0353 C.3       1 <0>        -0.1253
      2 C2         -0.1229    0.0307    0.0113 C.ar      1 <0>        -0.0671
      3 C3          0.0634   -0.6761   -1.1613 C.ar      1 <0>        -0.0720
      4 C4          0.2290   -2.0468   -1.1226 C.ar      1 <0>        -0.1329
      5 C5          0.2079   -2.7107    0.0944 C.ar      1 <0>         0.1252
      6 C6          0.0205   -1.9994    1.2731 C.ar      1 <0>        -0.1841
      7 C7         -0.1392   -0.6276    1.2297 C.ar      1 <0>        -0.0465
      8 C8         -0.3185   -0.0888    2.6329 C.3       1 <0>        -0.0512
      9 H1         -1.1269    0.6420    2.6570 H         1 <0>         0.1034
     10 C9         -0.6814   -1.3173    3.4941 C.3       1 <0>        -0.1331
     11 C10        -0.0420   -2.4772    2.7079 C.3       1 <0>         0.0867
     12 H2          0.9618   -2.6702    3.0864 H         1 <0>         0.1474
     13 N1         -0.8666   -3.6890    2.8062 N.4       1 <0>        -0.4978
     14 C11        -0.8201   -4.2027    4.1817 C.3       1 <0>         0.0106
     15 H3         -1.0634   -3.4101    4.8893 H         1 <0>         0.1470
     16 C12         0.5780   -4.7862    4.4895 C.3       1 <0>        -0.1391
     17 C13         0.2504   -6.0442    5.3326 C.3       1 <0>         0.0379
     18 N2         -0.9822   -6.5708    4.6926 N.3       1 <0>        -0.4840
     19 C14        -1.7958   -5.3828    4.3448 C.3       1 <0>         0.0180
     20 C15        -1.7126   -7.4581    5.6075 C.3       1 <0>        -0.0198
     21 C16        -1.8174   -8.9358    5.2248 C.3       1 <0>        -0.1512
     22 C17        -3.0462   -8.0300    5.1224 C.3       1 <0>        -0.1712
     23 C18         0.9831    0.5440    3.1290 C.3       1 <0>        -0.1483
     24 O1          0.3702   -4.0594    0.1343 O.3       1 <0>        -0.5098
     25 H4          0.6703    2.0117    0.0346 H         1 <0>         0.0807
     26 H5         -0.7817    1.8054   -0.9739 H         1 <0>         0.0766
     27 H6         -0.9280    1.8430    0.7996 H         1 <0>         0.0725
     28 H7          0.0792   -0.1568   -2.1081 H         1 <0>         0.1430
     29 H8          0.3743   -2.6003   -2.0385 H         1 <0>         0.1446
     30 H9         -0.2483   -1.2333    4.4908 H         1 <0>         0.1107
     31 H10        -1.7623   -1.4459    3.5496 H         1 <0>         0.0952
     32 H11        -1.8202   -3.4676    2.5620 H         1 <0>         0.4259
     33 H12         1.0921   -5.0621    3.5688 H         1 <0>         0.0966
     34 H13         1.1726   -4.0787    5.0674 H         1 <0>         0.1058
     35 H14         1.0589   -6.7723    5.2674 H         1 <0>         0.1060
     36 H15         0.0589   -5.7724    6.3707 H         1 <0>         0.0653
     37 H16        -2.5055   -5.1701    5.1443 H         1 <0>         0.0876
     38 H17        -2.3275   -5.5571    3.4093 H         1 <0>         0.0970
     39 H18        -1.6237   -7.2173    6.6668 H         1 <0>         0.1014
     40 H19        -1.3445   -9.2495    4.2942 H         1 <0>         0.1044
     41 H20        -1.7975   -9.6675    6.0325 H         1 <0>         0.1028
     42 H21        -3.8346   -8.1657    5.8628 H         1 <0>         0.1027
     43 H22        -3.3817   -7.7477    4.1245 H         1 <0>         0.0987
     44 H23         1.2508    1.3792    2.4817 H         1 <0>         0.0708
     45 H24         0.8466    0.9040    4.1487 H         1 <0>         0.0720
     46 H25         1.7793   -0.2002    3.1099 H         1 <0>         0.0588
     47 H26         1.2943   -4.3442    0.1427 H         1 <0>         0.4045
     48 H27        -0.5114   -4.3898    2.1733 H         1 <0>         0.4338
@<TRIPOS>BOND
     1    1    2 1
     2    1   25 1
     3    1   26 1
     4    1   27 1
     5    2    7 ar
     6    2    3 ar
     7    3    4 ar
     8    3   28 1
     9    4    5 ar
    10    4   29 1
    11    5    6 ar
    12    5   24 1
    13    6   11 1
    14    6    7 ar
    15    7    8 1
    16    8    9 1
    17    8   10 1
    18    8   23 1
    19   10   11 1
    20   10   30 1
    21   10   31 1
    22   11   12 1
    23   11   13 1
    24   13   14 1
    25   13   32 1
    26   13   48 1
    27   14   15 1
    28   14   19 1
    29   14   16 1
    30   16   17 1
    31   16   33 1
    32   16   34 1
    33   17   18 1
    34   17   35 1
    35   17   36 1
    36   18   19 1
    37   18   20 1
    38   19   37 1
    39   19   38 1
    40   20   22 1
    41   20   21 1
    42   20   39 1
    43   21   22 1
    44   21   40 1
    45   21   41 1
    46   22   42 1
    47   22   43 1
    48   23   44 1
    49   23   45 1
    50   23   46 1
    51   24   47 1
@<TRIPOS>MOLECULE
ZINC51606937
   39    40     0     0     0
SMALL
USER_CHARGES

@<TRIPOS>ATOM
      1 C1          0.2868    1.6727    0.0770 C.3       1 <0>        -0.1081
      2 C2          0.2856    0.1674    0.0046 C.2       1 <0>        -0.0682
      3 C3          0.4158   -0.4765   -1.2116 C.2       1 <0>        -0.1703
      4 C4          0.4108   -1.8316   -1.2418 C.2       1 <0>        -0.1384
      5 S1          0.2177   -2.2387    0.4857 S.3       1 <0>         0.0884
      6 C5          0.1623   -0.5753    1.1317 C.2       1 <0>        -0.2286
      7 C6          0.0152   -0.1162    2.5595 C.3       1 <0>        -0.0255
      8 H1          0.2819    0.9383    2.6314 H         1 <0>         0.1391
      9 C7         -1.4344   -0.3074    3.0100 C.3       1 <0>         0.0493
     10 H2         -1.6799   -1.3694    3.0029 H         1 <0>         0.1539
     11 C8         -1.6058    0.2463    4.4259 C.3       1 <0>        -0.1890
     12 N1         -2.3308    0.4085    2.0924 N.4       1 <0>        -0.6311
     13 S2          1.1130   -1.0915    3.6245 S.3       1 <0>         0.0673
     14 C9          2.7313   -0.5804    3.1505 C.ar      1 <0>         0.2948
     15 N2          2.8724    0.2696    2.1431 N.ar      1 <0>        -0.5229
     16 C10         4.0730    0.6734    1.7626 C.ar      1 <0>         0.1934
     17 C11         5.1901    0.1969    2.4307 C.ar      1 <0>        -0.2240
     18 C12         5.0068   -0.6907    3.4796 C.ar      1 <0>         0.2012
     19 N3          3.7786   -1.0507    3.8131 N.ar      1 <0>        -0.5017
     20 C13         6.1923   -1.2349    4.2341 C.3       1 <0>        -0.1129
     21 C14         4.2246    1.6396    0.6160 C.3       1 <0>        -0.1091
     22 H3          1.3090    2.0296    0.2022 H         1 <0>         0.0877
     23 H4         -0.1304    2.0810   -0.8435 H         1 <0>         0.0763
     24 H5         -0.3174    1.9962    0.9246 H         1 <0>         0.0492
     25 H6          0.5196    0.0917   -2.1242 H         1 <0>         0.1423
     26 H7          0.5001   -2.4933   -2.0906 H         1 <0>         0.1936
     27 H8         -1.4134    1.3192    4.4222 H         1 <0>         0.0886
     28 H9         -2.6240    0.0609    4.7678 H         1 <0>         0.0958
     29 H10        -0.9019   -0.2467    5.0965 H         1 <0>         0.1174
     30 H11        -2.1035    1.3915    2.0989 H         1 <0>         0.4325
     31 H12        -2.2178    0.0433    1.1586 H         1 <0>         0.4365
     32 H13         6.1820    0.5102    2.1402 H         1 <0>         0.1541
     33 H14         6.4217   -0.5780    5.0732 H         1 <0>         0.0930
     34 H15         5.9592   -2.2323    4.6068 H         1 <0>         0.0880
     35 H16         7.0536   -1.2880    3.5682 H         1 <0>         0.0880
     36 H17         4.2042    2.6609    0.9963 H         1 <0>         0.0896
     37 H18         5.1738    1.4586    0.1115 H         1 <0>         0.0871
     38 H19         3.4056    1.4980   -0.0892 H         1 <0>         0.0811
     39 H20        -3.2868    0.2823    2.3895 H         1 <0>         0.4419
@<TRIPOS>BOND
     1    1    2 1
     2    1   22 1
     3    1   23 1
     4    1   24 1
     5    2    6 2
     6    2    3 1
     7    3    4 2
     8    3   25 1
     9    4    5 1
    10    4   26 1
    11    5    6 1
    12    6    7 1
    13    7    8 1
    14    7    9 1
    15    7   13 1
    16    9   10 1
    17    9   11 1
    18    9   12 1
    19   11   27 1
    20   11   28 1
    21   11   29 1
    22   12   30 1
    23   12   31 1
    24   12   39 1
    25   13   14 1
    26   14   19 ar
    27   14   15 ar
    28   15   16 ar
    29   16   17 ar
    30   16   21 1
    31   17   18 ar
    32   17   32 1
    33   18   19 ar
    34   18   20 1
    35   20   33 1
    36   20   34 1
    37   20   35 1
    38   21   36 1
    39   21   37 1
    40   21   38 1
@<TRIPOS>MOLECULE
ZINC61560365
   39    40     0     0     0
SMALL
USER_CHARGES

@<TRIPOS>ATOM
      1 C1         -0.0184    1.5028    0.0103 C.3       1 <0>        -0.1252
      2 C2          0.0021   -0.0041    0.0020 C.ar      1 <0>        -0.0724
      3 C3          0.0058   -0.6883   -1.1995 C.ar      1 <0>        -0.0649
      4 C4          0.0250   -2.0699   -1.2083 C.ar      1 <0>        -0.1324
      5 C5          0.0405   -2.7693   -0.0132 C.ar      1 <0>         0.1299
      6 C6          0.0368   -2.0831    1.1892 C.ar      1 <0>        -0.1723
      7 C7          0.0229   -0.7010    1.1955 C.ar      1 <0>        -0.1037
      8 C8          0.0531   -2.8428    2.4906 C.3       1 <0>         0.1523
      9 H1         -0.5244   -3.7609    2.3827 H         1 <0>         0.1622
     10 C9          1.4750   -3.1837    2.8554 C.ar      1 <0>        -0.1800
     11 C10         2.1491   -2.4213    3.7917 C.ar      1 <0>        -0.1642
     12 C11         3.4560   -2.7328    4.1279 C.ar      1 <0>         0.1149
     13 C12         4.0893   -3.8142    3.5226 C.ar      1 <0>         0.1642
     14 C13         3.4102   -4.5755    2.5855 C.ar      1 <0>        -0.2046
     15 C14         2.1019   -4.2628    2.2569 C.ar      1 <0>         0.1481
     16 F1          1.4381   -5.0090    1.3471 F         1 <0>        -0.1124
     17 O1          5.3727   -4.1227    3.8500 O.3       1 <0>        -0.2885
     18 C15         5.9589   -5.2458    3.1889 C.3       1 <0>         0.0164
     19 O2          4.1200   -1.9825    5.0483 O.3       1 <0>        -0.2901
     20 C16         3.4080   -0.8877    5.6284 C.3       1 <0>         0.0195
     21 N1         -0.5386   -2.0136    3.5490 N.4       1 <0>        -0.6326
     22 F2          0.0588   -4.1201   -0.0207 F         1 <0>        -0.1163
     23 H2          1.0042    1.8801    0.0026 H         1 <0>         0.0828
     24 H3         -0.5455    1.8639   -0.8728 H         1 <0>         0.0799
     25 H4         -0.5286    1.8543    0.9071 H         1 <0>         0.0724
     26 H5         -0.0067   -0.1426   -2.1314 H         1 <0>         0.1475
     27 H6          0.0275   -2.6041   -2.1469 H         1 <0>         0.1520
     28 H7          0.0245   -0.1655    2.1334 H         1 <0>         0.1252
     29 H8          1.6564   -1.5824    4.2606 H         1 <0>         0.1359
     30 H9          3.8997   -5.4150    2.1142 H         1 <0>         0.1633
     31 H10         5.3773   -6.1410    3.4087 H         1 <0>         0.0654
     32 H11         5.9649   -5.0715    2.1129 H         1 <0>         0.0650
     33 H12         6.9816   -5.3814    3.5408 H         1 <0>         0.1159
     34 H13         3.1092   -0.1922    4.8441 H         1 <0>         0.0578
     35 H14         2.5210   -1.2614    6.1399 H         1 <0>         0.0563
     36 H15         4.0507   -0.3744    6.3436 H         1 <0>         0.1146
     37 H16        -0.0040   -1.1637    3.6489 H         1 <0>         0.4299
     38 H17        -1.4906   -1.7853    3.3048 H         1 <0>         0.4444
     39 H18        -0.5277   -2.5222    4.4204 H         1 <0>         0.4437
@<TRIPOS>BOND
     1    1    2 1
     2    1   23 1
     3    1   24 1
     4    1   25 1
     5    2    7 ar
     6    2    3 ar
     7    3    4 ar
     8    3   26 1
     9    4    5 ar
    10    4   27 1
    11    5    6 ar
    12    5   22 1
    13    6    7 ar
    14    6    8 1
    15    7   28 1
    16    8    9 1
    17    8   10 1
    18    8   21 1
    19   10   15 ar
    20   10   11 ar
    21   11   12 ar
    22   11   29 1
    23   12   13 ar
    24   12   19 1
    25   13   14 ar
    26   13   17 1
    27   14   15 ar
    28   14   30 1
    29   15   16 1
    30   17   18 1
    31   18   31 1
    32   18   32 1
    33   18   33 1
    34   19   20 1
    35   20   34 1
    36   20   35 1
    37   20   36 1
    38   21   37 1
    39   21   38 1
    40   21   39 1
@<TRIPOS>MOLECULE
ZINC19866151
   29    30     0     0     0
SMALL
USER_CHARGES
4-(2-bromo-4-chloro-phenoxy)benzamidine
@<TRIPOS>ATOM
      1 C1         -5.9469    2.6065    0.3647 C.ar      1 <0>        -0.0243
      2 C2         -4.7707    1.8984    0.2491 C.ar      1 <0>        -0.1369
      3 C3         -3.5604    2.5719    0.1378 C.ar      1 <0>         0.1913
      4 C4         -3.5313    3.9611    0.1483 C.ar      1 <0>        -0.1936
      5 C5         -4.7042    4.6755    0.2587 C.ar      1 <0>        -0.0144
      6 C6         -5.9217    4.0021    0.3703 C.ar      1 <0>        -0.1862
      7 C7         -7.1826    4.7657    0.4937 C.cat     1 <0>         0.5979
      8 N1         -8.3186    4.1355    0.5974 N.pl3     1 <0>        -0.7784
      9 N2         -7.1559    6.1436    0.4991 N.pl3     1 <0>        -0.8269
     10 O1         -2.4033    1.8711    0.0240 O.3       1 <0>        -0.2305
     11 C8         -1.2339    2.5637    0.0375 C.ar      1 <0>         0.0909
     12 C9         -0.5965    2.8739   -1.1551 C.ar      1 <0>        -0.0956
     13 C10         0.5951    3.5724   -1.1392 C.ar      1 <0>        -0.0789
     14 C11         1.1502    3.9689    0.0649 C.ar      1 <0>        -0.0216
     15 C12         0.5136    3.6663    1.2554 C.ar      1 <0>        -0.0694
     16 C13        -0.6785    2.9666    1.2441 C.ar      1 <0>        -0.0957
     17 Br1        -1.5479    2.5519    2.8714 Br        1 <0>        -0.0097
     18 Cl1         2.6478    4.8467    0.0817 Cl        1 <0>        -0.0319
     19 H1         -6.8873    2.0824    0.4505 H         1 <0>         0.1438
     20 H2         -4.7894    0.8185    0.2447 H         1 <0>         0.1585
     21 H3         -2.5885    4.4815    0.0657 H         1 <0>         0.1472
     22 H4         -4.6813    5.7552    0.2624 H         1 <0>         0.1399
     23 H5         -9.2562    4.7034    0.6892 H         1 <0>         0.4617
     24 H6         -8.0935    6.7115    0.5909 H         1 <0>         0.4553
     25 H7         -6.1970    6.6755    0.4117 H         1 <0>         0.4652
     26 H8         -1.0290    2.5648   -2.0953 H         1 <0>         0.1563
     27 H9          1.0938    3.8098   -2.0673 H         1 <0>         0.1567
     28 H10         0.9484    3.9765    2.1940 H         1 <0>         0.1571
     29 H11        -8.3398    3.0357    0.5932 H         1 <0>         0.4724
@<TRIPOS>BOND
     1    1    6 ar
     2    1    2 ar
     3    1   19 1
     4    2    3 ar
     5    2   20 1
     6    3    4 ar
     7    3   10 1
     8    4    5 ar
     9    4   21 1
    10    5    6 ar
    11    5   22 1
    12    6    7 1
    13    7    8 2
    14    7    9 1
    15    8   23 1
    16    8   29 1
    17    9   24 1
    18    9   25 1
    19   10   11 1
    20   11   16 ar
    21   11   12 ar
    22   12   13 ar
    23   12   26 1
    24   13   14 ar
    25   13   27 1
    26   14   15 ar
    27   14   18 1
    28   15   16 ar
    29   15   28 1
    30   16   17 1
@<TRIPOS>MOLECULE
ZINC37317487
   43    44     0     0     0
SMALL
USER_CHARGES

@<TRIPOS>ATOM
      1 C1         -0.0184    1.5028    0.0103 C.3       1 <0>        -0.1201
      2 C2          0.0021   -0.0041    0.0020 C.ar      1 <0>        -0.0881
      3 C3          0.0057   -0.6889   -1.1975 C.ar      1 <0>        -0.0930
      4 C4          0.0240   -2.0714   -1.2060 C.ar      1 <0>        -0.0557
      5 C5          0.0391   -2.7733   -0.0143 C.ar      1 <0>        -0.6350
      6 C6          0.0360   -2.0949    1.1884 C.ar      1 <0>        -0.0979
      7 C7          0.0230   -0.7057    1.2005 C.ar      1 <0>         0.1842
      8 N1          0.0251   -0.0163    2.4152 N.pl3     1 <0>        -0.7423
      9 C8          0.0472   -0.7580    3.6784 C.3       1 <0>         0.1385
     10 C9          1.4941   -1.0975    4.0477 C.3       1 <0>        -0.1678
     11 C10         1.5163   -1.8017    5.4060 C.3       1 <0>        -0.0062
     12 N2          0.9432   -0.9183    6.4286 N.4       1 <0>        -0.3853
     13 C11        -0.4656   -0.6463    6.1191 C.3       1 <0>        -0.0032
     14 C12        -0.5641    0.1023    4.7881 C.3       1 <0>        -0.1534
     15 C13         1.0377   -1.5673    7.7430 C.3       1 <0>         0.1294
     16 C14         0.5742   -0.6361    8.7845 C.1       1 <0>        -0.2974
     17 C15         0.2045    0.1067    9.6152 C.1       1 <0>        -0.0565
     18 S1          0.0617   -4.5350   -0.0309 S.o2      1 <0>         2.6994
     19 O1         -0.4774   -4.9599    1.2133 O.2       1 <0>        -0.9673
     20 O2         -0.4903   -4.9366   -1.2772 O.2       1 <0>        -0.9548
     21 N3          1.6498   -5.0042   -0.0436 N.pl3     1 <0>        -1.2497
     22 H1          1.0042    1.8801    0.0026 H         1 <0>         0.0784
     23 H2         -0.5455    1.8639   -0.8728 H         1 <0>         0.0800
     24 H3         -0.5286    1.8543    0.9071 H         1 <0>         0.0639
     25 H4         -0.0060   -0.1439   -2.1298 H         1 <0>         0.1396
     26 H5          0.0261   -2.6044   -2.1453 H         1 <0>         0.1455
     27 H6          0.0474   -2.6436    2.1185 H         1 <0>         0.1370
     28 H7          0.0120    0.9536    2.4225 H         1 <0>         0.4067
     29 H8         -0.5283   -1.6775    3.5713 H         1 <0>         0.1004
     30 H9          1.9183   -1.7558    3.2895 H         1 <0>         0.1170
     31 H10         2.0803   -0.1803    4.1036 H         1 <0>         0.0941
     32 H11         0.9300   -2.7189    5.3489 H         1 <0>         0.1367
     33 H12         2.5449   -2.0451    5.6719 H         1 <0>         0.1384
     34 H13        -1.0096   -1.5881    6.0468 H         1 <0>         0.1356
     35 H14        -0.9001   -0.0367    6.9113 H         1 <0>         0.1345
     36 H15        -0.0205    1.0444    4.8594 H         1 <0>         0.0935
     37 H16        -1.6109    0.3017    4.5592 H         1 <0>         0.1204
     38 H17         0.4150   -2.4618    7.7522 H         1 <0>         0.1488
     39 H18         2.0739   -1.8439    7.9380 H         1 <0>         0.1502
     40 H19        -0.1261    0.7709   10.3581 H         1 <0>         0.2363
     41 H20         2.3530   -4.3360   -0.0410 H         1 <0>         0.4162
     42 H21         1.8769   -5.9472   -0.0536 H         1 <0>         0.4236
     43 H22         1.4562   -0.0496    6.4470 H         1 <0>         0.4254
@<TRIPOS>BOND
     1    1    2 1
     2    1   22 1
     3    1   23 1
     4    1   24 1
     5    2    7 ar
     6    2    3 ar
     7    3    4 ar
     8    3   25 1
     9    4    5 ar
    10    4   26 1
    11    5    6 ar
    12    5   18 1
    13    6    7 ar
    14    6   27 1
    15    7    8 1
    16    8    9 1
    17    8   28 1
    18    9   14 1
    19    9   10 1
    20    9   29 1
    21   10   11 1
    22   10   30 1
    23   10   31 1
    24   11   12 1
    25   11   32 1
    26   11   33 1
    27   12   13 1
    28   12   15 1
    29   12   43 1
    30   13   14 1
    31   13   34 1
    32   13   35 1
    33   14   36 1
    34   14   37 1
    35   15   16 1
    36   15   38 1
    37   15   39 1
    38   16   17 3
    39   17   40 1
    40   18   19 2
    41   18   20 2
    42   18   21 1
    43   21   41 1
    44   21   42 1
@<TRIPOS>MOLECULE
ZINC42315599
   38    39     0     0     0
SMALL
USER_CHARGES

@<TRIPOS>ATOM
      1 C1         -0.0187    1.5258    0.0104 C.3       1 <0>        -0.1811
      2 C2          0.0021   -0.0041    0.0020 C.3       1 <0>         0.0802
      3 H1          0.5123   -0.3556   -0.8948 H         1 <0>         0.1500
      4 C3         -1.4117   -0.5257    0.0127 C.ar      1 <0>        -0.1336
      5 C4         -2.1227   -0.5708    1.1975 C.ar      1 <0>        -0.1149
      6 C5         -3.4195   -1.0487    1.2077 C.ar      1 <0>        -0.0777
      7 C6         -4.0061   -1.4819    0.0322 C.ar      1 <0>        -0.0705
      8 C7         -3.2943   -1.4366   -1.1530 C.ar      1 <0>        -0.0788
      9 C8         -1.9993   -0.9536   -1.1632 C.ar      1 <0>        -0.0799
     10 Br1        -5.7801   -2.1364    0.0456 Br        1 <0>        -0.0162
     11 N1          0.7126   -0.4907    1.1921 N.4       1 <0>        -0.5082
     12 C9          2.1220   -0.0825    1.1220 C.3       1 <0>         0.0395
     13 C10         2.8508   -0.5817    2.3429 C.ar      1 <0>        -0.1435
     14 C11         2.9127    0.2064    3.4784 C.ar      1 <0>        -0.0969
     15 C12         3.5784   -0.2446    4.5994 C.ar      1 <0>        -0.0566
     16 C13         4.1902   -1.4991    4.5864 C.ar      1 <0>        -0.0965
     17 C14         4.1240   -2.2892    3.4377 C.ar      1 <0>        -0.0841
     18 C15         3.4503   -1.8286    2.3253 C.ar      1 <0>        -0.0973
     19 C16         4.9057   -1.9886    5.7840 C.2       1 <0>         0.5529
     20 O1          4.9620   -1.2982    6.7828 O.2       1 <0>        -0.5227
     21 N2          5.4954   -3.2004    5.7683 N.am      1 <0>        -0.8444
     22 H2          1.0039    1.9031    0.0027 H         1 <0>         0.0877
     23 H3         -0.5459    1.8868   -0.8726 H         1 <0>         0.1095
     24 H4         -0.5289    1.8773    0.9072 H         1 <0>         0.0843
     25 H5         -1.6645   -0.2329    2.1152 H         1 <0>         0.1290
     26 H6         -3.9748   -1.0842    2.1334 H         1 <0>         0.1461
     27 H7         -3.7519   -1.7746   -2.0710 H         1 <0>         0.1478
     28 H8         -1.4449   -0.9143   -2.0892 H         1 <0>         0.1444
     29 H9          0.2896   -0.0986    2.0201 H         1 <0>         0.4249
     30 H10         2.5788   -0.5061    0.2276 H         1 <0>         0.1433
     31 H11         2.1837    1.0050    1.0814 H         1 <0>         0.1442
     32 H12         2.4392    1.1771    3.4870 H         1 <0>         0.1411
     33 H13         3.6263    0.3717    5.4850 H         1 <0>         0.1510
     34 H14         4.5953   -3.2607    3.4212 H         1 <0>         0.1405
     35 H15         3.3946   -2.4408    1.4373 H         1 <0>         0.1403
     36 H16         5.4504   -3.7514    4.9712 H         1 <0>         0.4019
     37 H17         5.9648   -3.5216    6.5540 H         1 <0>         0.4141
     38 H18         0.6554   -1.4974    1.2298 H         1 <0>         0.4304
@<TRIPOS>BOND
     1    1    2 1
     2    1   22 1
     3    1   23 1
     4    1   24 1
     5    2    3 1
     6    2    4 1
     7    2   11 1
     8    4    9 ar
     9    4    5 ar
    10    5    6 ar
    11    5   25 1
    12    6    7 ar
    13    6   26 1
    14    7    8 ar
    15    7   10 1
    16    8    9 ar
    17    8   27 1
    18    9   28 1
    19   11   12 1
    20   11   29 1
    21   11   38 1
    22   12   13 1
    23   12   30 1
    24   12   31 1
    25   13   18 ar
    26   13   14 ar
    27   14   15 ar
    28   14   32 1
    29   15   16 ar
    30   15   33 1
    31   16   17 ar
    32   16   19 1
    33   17   18 ar
    34   17   34 1
    35   18   35 1
    36   19   20 2
    37   19   21 am
    38   21   36 1
    39   21   37 1
@<TRIPOS>MOLECULE
ZINC48882075
   36    37     0     0     0
SMALL
USER_CHARGES

@<TRIPOS>ATOM
      1 C1         -0.1952    1.1531    0.3617 C.3       1 <0>         0.1010
      2 N1         -0.0180   -0.2935    0.2131 N.pl3     1 <0>        -0.6841
      3 C2          0.0101   -1.1537    1.3987 C.3       1 <0>         0.1741
      4 C3         -1.4001   -1.5006    1.8012 C.ar      1 <0>        -0.1000
      5 C4         -2.0862   -0.6883    2.6847 C.ar      1 <0>        -0.0975
      6 C5         -3.3797   -1.0058    3.0538 C.ar      1 <0>        -0.0878
      7 C6         -3.9878   -2.1366    2.5390 C.ar      1 <0>        -0.0916
      8 C7         -3.3010   -2.9491    1.6550 C.ar      1 <0>        -0.1024
      9 C8         -2.0093   -2.6279    1.2824 C.ar      1 <0>        -0.1160
     10 Br1        -5.7574   -2.5719    3.0441 Br        1 <0>        -0.0304
     11 C9          0.1232   -0.8497   -1.0522 C.ar      1 <0>         0.2309
     12 C10         1.3892   -1.0918   -1.5712 C.ar      1 <0>        -0.1217
     13 C11         1.5268   -1.6438   -2.8282 C.ar      1 <0>        -0.0522
     14 C12         0.4076   -1.9609   -3.5813 C.ar      1 <0>        -0.1160
     15 C13        -0.8557   -1.7279   -3.0830 C.ar      1 <0>        -0.0586
     16 C14        -1.0115   -1.1751   -1.8100 C.ar      1 <0>        -0.1790
     17 C15        -2.3620   -0.9286   -1.2678 C.cat     1 <0>         0.6199
     18 N2         -2.7098    0.2974   -0.8772 N.pl3     1 <0>        -0.7543
     19 N3         -3.2338   -1.9321   -1.1689 N.pl3     1 <0>        -0.7554
     20 H1          0.7731    1.6215    0.5383 H         1 <0>         0.0610
     21 H2         -0.6353    1.5607   -0.5484 H         1 <0>         0.0524
     22 H3         -0.8551    1.3536    1.2058 H         1 <0>         0.0695
     23 H4          0.5584   -2.0679    1.1714 H         1 <0>         0.0875
     24 H5          0.5027   -0.6285    2.2170 H         1 <0>         0.0909
     25 H6         -1.6112    0.1944    3.0869 H         1 <0>         0.1350
     26 H7         -3.9155   -0.3714    3.7443 H         1 <0>         0.1388
     27 H8         -3.7754   -3.8320    1.2528 H         1 <0>         0.1367
     28 H9         -1.4744   -3.2599    0.5890 H         1 <0>         0.1292
     29 H10         2.2662   -0.8474   -0.9903 H         1 <0>         0.1452
     30 H11         2.5128   -1.8295   -3.2277 H         1 <0>         0.1445
     31 H12         0.5261   -2.3926   -4.5642 H         1 <0>         0.1462
     32 H13        -1.7245   -1.9763   -3.6745 H         1 <0>         0.1402
     33 H14        -2.1144    1.0456   -1.0403 H         1 <0>         0.4419
     34 H15        -2.9807   -2.8243   -1.4532 H         1 <0>         0.4455
     35 H16        -4.1213   -1.7702   -0.8126 H         1 <0>         0.4292
     36 H17        -3.5583    0.4414   -0.4298 H         1 <0>         0.4276
@<TRIPOS>BOND
     1    1    2 1
     2    1   20 1
     3    1   21 1
     4    1   22 1
     5    2    3 1
     6    2   11 1
     7    3    4 1
     8    3   23 1
     9    3   24 1
    10    4    9 ar
    11    4    5 ar
    12    5    6 ar
    13    5   25 1
    14    6    7 ar
    15    6   26 1
    16    7    8 ar
    17    7   10 1
    18    8    9 ar
    19    8   27 1
    20    9   28 1
    21   11   16 ar
    22   11   12 ar
    23   12   13 ar
    24   12   29 1
    25   13   14 ar
    26   13   30 1
    27   14   15 ar
    28   14   31 1
    29   15   16 ar
    30   15   32 1
    31   16   17 1
    32   17   18 2
    33   17   19 1
    34   18   33 1
    35   18   36 1
    36   19   34 1
    37   19   35 1
@<TRIPOS>MOLECULE
ZINC57663641
   53    55     0     0     0
SMALL
USER_CHARGES

@<TRIPOS>ATOM
      1 C1         -0.0188    1.5315    0.0105 C.3       1 <0>        -0.1406
      2 C2          0.0021   -0.0041    0.0020 C.3       1 <0>        -0.0662
      3 C3          0.7092   -0.5793   -1.2558 C.3       1 <0>        -0.1347
      4 C4          0.0746   -1.9984   -1.2753 C.3       1 <0>         0.0386
      5 H1          0.2247   -2.4770   -2.2576 H         1 <0>         0.1507
      6 C5          0.6989   -2.7991   -0.1495 C.3       1 <0>        -0.1389
      7 C6          0.8805   -2.0987    1.1788 C.3       1 <0>        -0.0620
      8 C7          0.7268   -0.5914    1.2133 C.3       1 <0>        -0.1136
      9 C8          2.3172   -2.4180    1.6692 C.3       1 <0>        -0.1524
     10 C9         -0.0687   -2.7240    2.2190 C.3       1 <0>        -0.1560
     11 N1         -1.3552   -1.7140   -1.0395 N.4       1 <0>        -0.3841
     12 C10        -1.4180   -0.6112   -0.0621 C.3       1 <0>        -0.0103
     13 C11        -2.1119   -2.8755   -0.5886 C.3       1 <0>        -0.0126
     14 C12        -3.5951   -2.5123   -0.4932 C.3       1 <0>        -0.1765
     15 C13        -4.3892   -3.7314   -0.0200 C.3       1 <0>         0.1616
     16 H2         -3.9700   -4.0966    0.9176 H         1 <0>         0.1168
     17 C14        -5.8294   -3.3414    0.1919 C.ar      1 <0>        -0.0920
     18 C15        -6.7112   -3.3523   -0.8731 C.ar      1 <0>        -0.1437
     19 C16        -8.0337   -2.9952   -0.6838 C.ar      1 <0>        -0.0966
     20 C17        -8.4783   -2.6260    0.5724 C.ar      1 <0>         0.0274
     21 C18        -7.5931   -2.6144    1.6451 C.ar      1 <0>         0.1980
     22 C19        -6.2677   -2.9791    1.4509 C.ar      1 <0>        -0.1667
     23 N2         -8.0384   -2.2417    2.9173 N.pl3     1 <0>        -0.8684
     24 F1         -9.7702   -2.2767    0.7575 F         1 <0>        -0.1367
     25 O1         -4.3150   -4.7611   -1.0080 O.3       1 <0>        -0.5482
     26 H3          1.0038    1.9088    0.0027 H         1 <0>         0.0782
     27 H4         -0.5459    1.8926   -0.8726 H         1 <0>         0.0693
     28 H5         -0.5289    1.8831    0.9073 H         1 <0>         0.0721
     29 H6          0.4471   -0.0187   -2.1514 H         1 <0>         0.0980
     30 H7          1.7876   -0.6311   -1.1189 H         1 <0>         0.1190
     31 H8          0.1730   -3.7505    0.0054 H         1 <0>         0.0917
     32 H9          1.7130   -3.1179   -0.4910 H         1 <0>         0.1061
     33 H10         1.7235   -0.1299    1.2884 H         1 <0>         0.0848
     34 H11         0.1816   -0.3060    2.1262 H         1 <0>         0.0791
     35 H12         3.0399   -2.0524    0.9397 H         1 <0>         0.0609
     36 H13         2.4906   -1.9301    2.6284 H         1 <0>         0.0647
     37 H14         2.4307   -3.4960    1.7842 H         1 <0>         0.0624
     38 H15         0.1621   -3.7834    2.3309 H         1 <0>         0.0674
     39 H16         0.0603   -2.2209    3.1773 H         1 <0>         0.0701
     40 H17        -1.0999   -2.6101    1.8848 H         1 <0>         0.0468
     41 H18        -1.7274   -0.9772    0.9119 H         1 <0>         0.1310
     42 H19        -2.1258    0.1456   -0.4105 H         1 <0>         0.1286
     43 H20        -1.9826   -3.6917   -1.2995 H         1 <0>         0.1371
     44 H21        -1.7502   -3.1867    0.3915 H         1 <0>         0.1321
     45 H22        -3.7243   -1.6962    0.2177 H         1 <0>         0.0979
     46 H23        -3.9567   -2.2012   -1.4732 H         1 <0>         0.0937
     47 H24        -6.3662   -3.6399   -1.8552 H         1 <0>         0.1276
     48 H25        -8.7198   -3.0044   -1.5178 H         1 <0>         0.1407
     49 H26        -5.5788   -2.9754    2.2827 H         1 <0>         0.1313
     50 H27        -8.9656   -1.9909    3.0524 H         1 <0>         0.4074
     51 H28        -7.4200   -2.2340    3.6646 H         1 <0>         0.4053
     52 H29        -4.6712   -4.5056   -1.8699 H         1 <0>         0.3811
     53 H30        -1.7628   -1.3800   -1.9154 H         1 <0>         0.4228
@<TRIPOS>BOND
     1    1    2 1
     2    1   26 1
     3    1   27 1
     4    1   28 1
     5    2    8 1
     6    2   12 1
     7    2    3 1
     8    3    4 1
     9    3   29 1
    10    3   30 1
    11    4    5 1
    12    4    6 1
    13    4   11 1
    14    6    7 1
    15    6   31 1
    16    6   32 1
    17    7    8 1
    18    7    9 1
    19    7   10 1
    20    8   33 1
    21    8   34 1
    22    9   35 1
    23    9   36 1
    24    9   37 1
    25   10   38 1
    26   10   39 1
    27   10   40 1
    28   11   12 1
    29   11   13 1
    30   11   53 1
    31   12   41 1
    32   12   42 1
    33   13   14 1
    34   13   43 1
    35   13   44 1
    36   14   15 1
    37   14   45 1
    38   14   46 1
    39   15   16 1
    40   15   17 1
    41   15   25 1
    42   17   22 ar
    43   17   18 ar
    44   18   19 ar
    45   18   47 1
    46   19   20 ar
    47   19   48 1
    48   20   21 ar
    49   20   24 1
    50   21   22 ar
    51   21   23 1
    52   22   49 1
    53   23   50 1
    54   23   51 1
    55   25   52 1
@<TRIPOS>MOLECULE
ZINC20228987
   43    44     0     0     0
SMALL
USER_CHARGES
2-[[4-(3-aminopropoxy)benzoyl]amino]benzamide
@<TRIPOS>ATOM
      1 C1         -1.4218    3.3890    0.1188 C.ar      1 <0>        -0.1388
      2 C2         -0.3985    3.8620    0.9247 C.ar      1 <0>        -0.0710
      3 C3          0.8710    3.3296    0.8264 C.ar      1 <0>        -0.1270
      4 C4          1.1306    2.3131   -0.0835 C.ar      1 <0>         0.2097
      5 C5          0.0968    1.8316   -0.9005 C.ar      1 <0>        -0.1721
      6 C6         -1.1815    2.3846   -0.7934 C.ar      1 <0>        -0.0692
      7 C7          0.3594    0.7522   -1.8709 C.2       1 <0>         0.5741
      8 O1          1.4753    0.2788   -1.9663 O.2       1 <0>        -0.5617
      9 N1         -0.6374    0.2908   -2.6518 N.am      1 <0>        -0.8695
     10 N2          2.4103    1.7750   -0.1847 N.am      1 <0>        -0.6705
     11 C8          3.4859    2.5869   -0.1700 C.2       1 <0>         0.5631
     12 O2          3.3449    3.7794    0.0208 O.2       1 <0>        -0.5236
     13 C9          4.8348    2.0287   -0.3855 C.ar      1 <0>        -0.1613
     14 C10         4.9997    0.6575   -0.5992 C.ar      1 <0>        -0.0358
     15 C11         6.2596    0.1413   -0.8047 C.ar      1 <0>        -0.2152
     16 C12         7.3676    0.9804   -0.7887 C.ar      1 <0>         0.1483
     17 C13         7.2084    2.3441   -0.5717 C.ar      1 <0>        -0.1538
     18 C14         5.9514    2.8690   -0.3706 C.ar      1 <0>        -0.0154
     19 O3          8.6082    0.4669   -0.9860 O.3       1 <0>        -0.3096
     20 C15         8.7000   -0.9425   -1.2032 C.3       1 <0>         0.0561
     21 C16        10.1655   -1.3332   -1.4044 C.3       1 <0>        -0.1542
     22 C17        10.2637   -2.8423   -1.6370 C.3       1 <0>         0.0015
     23 N3         11.6708   -3.2174   -1.8301 N.4       1 <0>        -0.6857
     24 H1         -2.4116    3.8129    0.2030 H         1 <0>         0.1333
     25 H2         -0.5956    4.6524    1.6338 H         1 <0>         0.1339
     26 H3          1.6633    3.7042    1.4574 H         1 <0>         0.1392
     27 H4         -1.9816    2.0224   -1.4220 H         1 <0>         0.1305
     28 H5         -0.4415   -0.5142   -3.3754 H         1 <0>         0.4277
     29 H6         -1.6469    0.7192   -2.5655 H         1 <0>         0.4222
     30 H7          2.5438    0.6870   -0.2767 H         1 <0>         0.4421
     31 H8          4.1397    0.0042   -0.6070 H         1 <0>         0.1353
     32 H9          6.3874   -0.9176   -0.9744 H         1 <0>         0.1326
     33 H10         8.0718    2.9928   -0.5603 H         1 <0>         0.1415
     34 H11         5.8285    3.9287   -0.2021 H         1 <0>         0.1488
     35 H12         8.2951   -1.4752   -0.3301 H         1 <0>         0.0753
     36 H13         8.1219   -1.2139   -2.0988 H         1 <0>         0.0754
     37 H14        10.5704   -0.8005   -2.2775 H         1 <0>         0.0993
     38 H15        10.7436   -1.0618   -0.5088 H         1 <0>         0.0994
     39 H16         9.8587   -3.3750   -0.7639 H         1 <0>         0.1325
     40 H17         9.6856   -3.1137   -2.5327 H         1 <0>         0.1325
     41 H18        11.7414   -4.3023   -1.9973 H         1 <0>         0.4632
     42 H19        12.2488   -2.9461   -0.9344 H         1 <0>         0.4584
     43 H20        12.0758   -2.6847   -2.7032 H         1 <0>         0.4585
@<TRIPOS>BOND
     1    1    6 ar
     2    1    2 ar
     3    1   24 1
     4    2    3 ar
     5    2   25 1
     6    3    4 ar
     7    3   26 1
     8    4    5 ar
     9    4   10 1
    10    5    6 ar
    11    5    7 1
    12    6   27 1
    13    7    8 2
    14    7    9 am
    15    9   28 1
    16    9   29 1
    17   10   11 am
    18   10   30 1
    19   11   12 2
    20   11   13 1
    21   13   18 ar
    22   13   14 ar
    23   14   15 ar
    24   14   31 1
    25   15   16 ar
    26   15   32 1
    27   16   17 ar
    28   16   19 1
    29   17   18 ar
    30   17   33 1
    31   18   34 1
    32   19   20 1
    33   20   21 1
    34   20   35 1
    35   20   36 1
    36   21   22 1
    37   21   37 1
    38   21   38 1
    39   22   23 1
    40   22   39 1
    41   22   40 1
    42   23   41 1
    43   23   42 1
    44   23   43 1
@<TRIPOS>MOLECULE
ZINC40462738
   45    45     0     0     0
SMALL
USER_CHARGES

@<TRIPOS>ATOM
      1 C1          1.2062    1.2359   -0.1710 C.3       1 <0>        -0.1253
      2 C2          0.5776   -0.1310   -0.0841 C.ar      1 <0>        -0.0791
      3 C3         -0.0258   -0.6859   -1.1980 C.ar      1 <0>        -0.0159
      4 C4         -0.6032   -1.9399   -1.1225 C.ar      1 <0>        -0.6575
      5 C5         -0.5789   -2.6426    0.0665 C.ar      1 <0>        -0.0287
      6 C6          0.0262   -2.0883    1.1866 C.ar      1 <0>         0.1052
      7 C7          0.6099   -0.8306    1.1060 C.ar      1 <0>        -0.0434
      8 C8          1.2728   -0.2276    2.3177 C.3       1 <0>        -0.1339
      9 N1          0.0521   -2.7974    2.3926 N.am      1 <0>        -0.6394
     10 C9         -0.0314   -4.1425    2.3854 C.2       1 <0>         0.5041
     11 O1         -0.0283   -4.7447    1.3326 O.2       1 <0>        -0.4992
     12 C10        -0.1286   -4.8984    3.6855 C.3       1 <0>         0.0147
     13 H1         -0.7839   -4.3603    4.3705 H         1 <0>         0.1704
     14 C11         1.2639   -5.0263    4.3064 C.3       1 <0>        -0.0773
     15 C12         1.8353   -3.6315    4.5689 C.3       1 <0>        -0.1660
     16 C13         1.1652   -5.7937    5.6264 C.3       1 <0>        -0.1637
     17 C14         2.1836   -5.7816    3.3449 C.3       1 <0>        -0.1704
     18 N2         -0.6773   -6.2376    3.4335 N.4       1 <0>        -0.6225
     19 S1         -1.3713   -2.6422   -2.5443 S.o2      1 <0>         2.7022
     20 O2         -2.3148   -3.5923   -2.0686 O.2       1 <0>        -0.9616
     21 O3         -1.7402   -1.5570   -3.3843 O.2       1 <0>        -0.9534
     22 N3         -0.2085   -3.4961   -3.3575 N.pl3     1 <0>        -1.2477
     23 H2          2.2504    1.1375   -0.4677 H         1 <0>         0.0822
     24 H3          0.6734    1.8345   -0.9099 H         1 <0>         0.0804
     25 H4          1.1493    1.7244    0.8017 H         1 <0>         0.0769
     26 H5         -0.0464   -0.1383   -2.1287 H         1 <0>         0.1521
     27 H6         -1.0304   -3.6220    0.1249 H         1 <0>         0.1621
     28 H7          0.5397    0.3455    2.8854 H         1 <0>         0.0877
     29 H8          1.6767   -1.0228    2.9443 H         1 <0>         0.0670
     30 H9          2.0813    0.4306    1.9997 H         1 <0>         0.0904
     31 H10         0.1301   -2.3208    3.2338 H         1 <0>         0.4218
     32 H11         1.1800   -3.0934    5.2539 H         1 <0>         0.0766
     33 H12         2.8273   -3.7226    5.0113 H         1 <0>         0.0926
     34 H13         1.9056   -3.0848    3.6286 H         1 <0>         0.0698
     35 H14         0.7581   -6.7874    5.4393 H         1 <0>         0.0582
     36 H15         2.1572   -5.8848    6.0687 H         1 <0>         0.0937
     37 H16         0.5099   -5.2556    6.3114 H         1 <0>         0.0796
     38 H17         2.2539   -5.2348    2.4046 H         1 <0>         0.0757
     39 H18         3.1756   -5.8727    3.7873 H         1 <0>         0.0927
     40 H19         1.7765   -6.7752    3.1579 H         1 <0>         0.0595
     41 H20        -1.5956   -6.1532    3.0240 H         1 <0>         0.4431
     42 H21        -0.0707   -6.7357    2.7994 H         1 <0>         0.4416
     43 H22         0.6979   -3.5298   -3.0137 H         1 <0>         0.4168
     44 H23        -0.4339   -3.9626   -4.1775 H         1 <0>         0.4246
     45 H24        -0.7423   -6.7437    4.3039 H         1 <0>         0.4431
@<TRIPOS>BOND
     1    1    2 1
     2    1   23 1
     3    1   24 1
     4    1   25 1
     5    2    7 ar
     6    2    3 ar
     7    3    4 ar
     8    3   26 1
     9    4    5 ar
    10    4   19 1
    11    5    6 ar
    12    5   27 1
    13    6    7 ar
    14    6    9 1
    15    7    8 1
    16    8   28 1
    17    8   29 1
    18    8   30 1
    19    9   10 am
    20    9   31 1
    21   10   11 2
    22   10   12 1
    23   12   13 1
    24   12   14 1
    25   12   18 1
    26   14   15 1
    27   14   16 1
    28   14   17 1
    29   15   32 1
    30   15   33 1
    31   15   34 1
    32   16   35 1
    33   16   36 1
    34   16   37 1
    35   17   38 1
    36   17   39 1
    37   17   40 1
    38   18   41 1
    39   18   42 1
    40   18   45 1
    41   19   20 2
    42   19   21 2
    43   19   22 1
    44   22   43 1
    45   22   44 1
@<TRIPOS>MOLECULE
ZINC42944048
   40    41     0     0     0
SMALL
USER_CHARGES

@<TRIPOS>ATOM
      1 C1         -0.5106    1.5358    0.2358 C.3       1 <0>        -0.1727
      2 C2         -0.4068    0.0158    0.0950 C.3       1 <0>        -0.1536
      3 C3         -1.8087   -0.5962    0.1271 C.3       1 <0>         0.0497
      4 H1         -2.3262   -0.2718    1.0299 H         1 <0>         0.1533
      5 C4         -1.6992   -2.1223    0.1224 C.3       1 <0>        -0.0722
      6 H2         -1.1599   -2.4451   -0.7681 H         1 <0>         0.1345
      7 C5         -3.0804   -2.7250    0.1194 C.ar      1 <0>        -0.1454
      8 C6         -3.9557   -2.4511    1.1538 C.ar      1 <0>        -0.0749
      9 C7         -5.2228   -3.0029    1.1519 C.ar      1 <0>        -0.1498
     10 C8         -5.6153   -3.8304    0.1135 C.ar      1 <0>         0.1253
     11 C9         -4.7377   -4.1040   -0.9220 C.ar      1 <0>        -0.1534
     12 C10        -3.4730   -3.5468   -0.9206 C.ar      1 <0>        -0.0528
     13 F1         -6.8536   -4.3708    0.1108 F         1 <0>        -0.1278
     14 S1         -0.8042   -2.6688    1.6026 S.3       1 <0>         0.0644
     15 C11        -0.5587   -4.3936    1.3397 C.ar      1 <0>         0.3727
     16 N1         -0.9170   -4.9272    0.1810 N.ar      1 <0>        -0.6145
     17 C12        -0.7462   -6.2263   -0.0530 C.ar      1 <0>         0.4793
     18 C13        -0.1833   -7.0249    0.9383 C.ar      1 <0>        -0.3613
     19 C14         0.1806   -6.4290    2.1423 C.ar      1 <0>         0.4824
     20 N2         -0.0154   -5.1225    2.3038 N.ar      1 <0>        -0.5872
     21 N3          0.7443   -7.1853    3.1581 N.pl3     1 <0>        -0.8294
     22 N4         -1.1242   -6.7767   -1.2677 N.pl3     1 <0>        -0.8336
     23 N5         -2.5624   -0.1558   -1.0544 N.4       1 <0>        -0.6314
     24 H3          0.4882    1.9718    0.2130 H         1 <0>         0.0870
     25 H4         -1.1013    1.9375   -0.5875 H         1 <0>         0.0528
     26 H5         -0.9925    1.7810    1.1822 H         1 <0>         0.0747
     27 H6          0.0751   -0.2293   -0.8514 H         1 <0>         0.0955
     28 H7          0.1839   -0.3858    0.9183 H         1 <0>         0.1230
     29 H8         -3.6492   -1.8059    1.9638 H         1 <0>         0.1411
     30 H9         -5.9063   -2.7891    1.9602 H         1 <0>         0.1454
     31 H10        -5.0428   -4.7496   -1.7323 H         1 <0>         0.1427
     32 H11        -2.7899   -3.7565   -1.7303 H         1 <0>         0.1377
     33 H12        -0.0328   -8.0822    0.7772 H         1 <0>         0.1411
     34 H13         0.8875   -8.1364    3.0323 H         1 <0>         0.4162
     35 H14         0.9956   -6.7635    3.9947 H         1 <0>         0.4116
     36 H15        -1.5162   -6.2143   -1.9540 H         1 <0>         0.4043
     37 H16        -0.9968   -7.7243   -1.4315 H         1 <0>         0.4159
     38 H17        -2.6346    0.8506   -1.0513 H         1 <0>         0.4389
     39 H18        -2.0833   -0.4560   -1.8901 H         1 <0>         0.4344
     40 H19        -3.4869   -0.5594   -1.0332 H         1 <0>         0.4361
@<TRIPOS>BOND
     1    1    2 1
     2    1   24 1
     3    1   25 1
     4    1   26 1
     5    2    3 1
     6    2   27 1
     7    2   28 1
     8    3    4 1
     9    3    5 1
    10    3   23 1
    11    5    6 1
    12    5    7 1
    13    5   14 1
    14    7   12 ar
    15    7    8 ar
    16    8    9 ar
    17    8   29 1
    18    9   10 ar
    19    9   30 1
    20   10   11 ar
    21   10   13 1
    22   11   12 ar
    23   11   31 1
    24   12   32 1
    25   14   15 1
    26   15   20 ar
    27   15   16 ar
    28   16   17 ar
    29   17   18 ar
    30   17   22 1
    31   18   19 ar
    32   18   33 1
    33   19   20 ar
    34   19   21 1
    35   21   34 1
    36   21   35 1
    37   22   36 1
    38   22   37 1
    39   23   38 1
    40   23   39 1
    41   23   40 1
@<TRIPOS>MOLECULE
ZINC43291175
   31    32     0     0     0
SMALL
USER_CHARGES

@<TRIPOS>ATOM
      1 C1          0.2534    1.1724    0.1515 C.2       1 <0>        -0.0742
      2 C2          1.5187    1.7185    0.2638 C.2       1 <0>        -0.1380
      3 C3          2.5893    0.8889    0.3266 C.2       1 <0>        -0.1153
      4 S1          1.8178   -0.7180    0.2265 S.3       1 <0>         0.1160
      5 C4          0.1210   -0.1759    0.1077 C.2       1 <0>        -0.1827
      6 C5         -1.1333   -1.0029   -0.0103 C.3       1 <0>        -0.0213
      7 H1         -1.9998   -0.3436   -0.0611 H         1 <0>         0.1440
      8 C6         -1.2585   -1.9165    1.2106 C.3       1 <0>         0.0132
      9 N1         -2.5424   -2.6286    1.1598 N.4       1 <0>        -0.6373
     10 S2         -1.0526   -2.0125   -1.5152 S.3       1 <0>         0.0070
     11 C7         -1.1459   -0.8359   -2.8234 C.ar      1 <0>         0.3814
     12 N2         -1.3471    0.4406   -2.5301 N.ar      1 <0>        -0.6103
     13 C8         -1.4227    1.3572   -3.4922 C.ar      1 <0>         0.4821
     14 C9         -1.2874    0.9593   -4.8191 C.ar      1 <0>        -0.3571
     15 C10        -1.0772   -0.3900   -5.0883 C.ar      1 <0>         0.4820
     16 N3         -1.0077   -1.2497   -4.0746 N.ar      1 <0>        -0.5855
     17 N4         -0.9372   -0.8319   -6.3947 N.pl3     1 <0>        -0.8286
     18 N5         -1.6338    2.6904   -3.1768 N.pl3     1 <0>        -0.8301
     19 Br1         1.7525    3.5939    0.3280 Br        1 <0>        -0.0190
     20 H2         -0.6167    1.8104    0.1040 H         1 <0>         0.1444
     21 H3          3.6370    1.1360    0.4144 H         1 <0>         0.2023
     22 H4         -0.4421   -2.6387    1.2093 H         1 <0>         0.1479
     23 H5         -1.2115   -1.3167    2.1196 H         1 <0>         0.1612
     24 H6         -2.5525   -3.2472    0.3627 H         1 <0>         0.4384
     25 H7         -2.6622   -3.1668    2.0048 H         1 <0>         0.4450
     26 H8         -1.3446    1.6806   -5.6210 H         1 <0>         0.1432
     27 H9         -0.9855   -0.1994   -7.1285 H         1 <0>         0.4171
     28 H10        -0.7909   -1.7737   -6.5751 H         1 <0>         0.4117
     29 H11        -1.7275    2.9606   -2.2500 H         1 <0>         0.4069
     30 H12        -1.6878    3.3532   -3.8831 H         1 <0>         0.4168
     31 H13        -3.2943   -1.9608    1.0769 H         1 <0>         0.4390
@<TRIPOS>BOND
     1    1    5 2
     2    1    2 1
     3    1   20 1
     4    2    3 2
     5    2   19 1
     6    3    4 1
     7    3   21 1
     8    4    5 1
     9    5    6 1
    10    6    7 1
    11    6    8 1
    12    6   10 1
    13    8    9 1
    14    8   22 1
    15    8   23 1
    16    9   24 1
    17    9   25 1
    18    9   31 1
    19   10   11 1
    20   11   16 ar
    21   11   12 ar
    22   12   13 ar
    23   13   14 ar
    24   13   18 1
    25   14   15 ar
    26   14   26 1
    27   15   16 ar
    28   15   17 1
    29   17   27 1
    30   17   28 1
    31   18   29 1
    32   18   30 1
@<TRIPOS>MOLECULE
ZINC61440959
   44    45     0     0     0
SMALL
USER_CHARGES

@<TRIPOS>ATOM
      1 C1         -0.0184    1.5028    0.0103 C.3       1 <0>        -0.1166
      2 C2          0.0021   -0.0041    0.0020 C.ar      1 <0>        -0.0583
      3 C3          0.0057   -0.6864   -1.2055 C.ar      1 <0>        -0.1202
      4 C4          0.0243   -2.0630   -1.2303 C.ar      1 <0>        -0.0627
      5 C5          0.0401   -2.7784   -0.0302 C.ar      1 <0>         0.0470
      6 C6          0.0368   -2.0823    1.1897 C.ar      1 <0>         0.0637
      7 C7          0.0228   -0.6958    1.1957 C.ar      1 <0>        -0.1145
      8 N1          0.0554   -3.0466    2.1841 N.pl3     1 <0>        -0.5815
      9 C8          0.0691   -4.2652    1.5661 C.2       1 <0>         0.2571
     10 N2          0.0600   -4.1044    0.2655 N.2       1 <0>        -0.4926
     11 S1          0.0959   -5.8203    2.3941 S.3       1 <0>        -0.0093
     12 C9          0.1053   -7.0347    1.0467 C.3       1 <0>        -0.1027
     13 C10         0.1287   -8.4475    1.6336 C.3       1 <0>        -0.1069
     14 C11         0.1366   -9.4718    0.4971 C.3       1 <0>        -0.1307
     15 C12         0.1601  -10.8846    1.0840 C.3       1 <0>        -0.1310
     16 C13         0.1680  -11.9089   -0.0525 C.3       1 <0>         0.0490
     17 C14         1.4691  -11.7791   -0.8470 C.3       1 <0>        -0.1796
     18 C15         0.0672  -13.2982    0.5227 C.2       1 <0>         0.5078
     19 O1          0.4415  -13.5140    1.6560 O.2       1 <0>        -0.4719
     20 N3         -0.4390  -14.3008   -0.2222 N.am      1 <0>        -0.8488
     21 N4         -0.9753  -11.6628   -0.9415 N.4       1 <0>        -0.6350
     22 H1          1.0042    1.8801    0.0026 H         1 <0>         0.0760
     23 H2         -0.5455    1.8639   -0.8728 H         1 <0>         0.0728
     24 H3         -0.5286    1.8543    0.9071 H         1 <0>         0.0691
     25 H4         -0.0065   -0.1338   -2.1334 H         1 <0>         0.1345
     26 H5          0.0263   -2.5879   -2.1741 H         1 <0>         0.1307
     27 H6          0.0244   -0.1585    2.1325 H         1 <0>         0.1269
     28 H7         -0.7901   -6.9090    0.4379 H         1 <0>         0.0971
     29 H8          0.9897   -6.8838    0.4276 H         1 <0>         0.0997
     30 H9          1.0241   -8.5733    2.2423 H         1 <0>         0.0879
     31 H10        -0.7557   -8.5985    2.2526 H         1 <0>         0.0836
     32 H11        -0.7587   -9.3461   -0.1116 H         1 <0>         0.0637
     33 H12         1.0210   -9.3209   -0.1219 H         1 <0>         0.0901
     34 H13         1.0554  -11.0103    1.6928 H         1 <0>         0.1275
     35 H14        -0.7243  -11.0356    1.7031 H         1 <0>         0.1002
     36 H15         2.3174  -11.9617   -0.1873 H         1 <0>         0.1177
     37 H16         1.4747  -12.5088   -1.6566 H         1 <0>         0.0894
     38 H17         1.5420  -10.7743   -1.2630 H         1 <0>         0.1032
     39 H18        -0.7385  -14.1283   -1.1285 H         1 <0>         0.3962
     40 H19        -0.5040  -15.1951    0.1480 H         1 <0>         0.4279
     41 H20        -0.9077  -10.7327   -1.3266 H         1 <0>         0.4426
     42 H21        -0.9700  -12.3384   -1.6909 H         1 <0>         0.4317
     43 H22        -1.8333  -11.7485   -0.4175 H         1 <0>         0.4408
     44 H23         0.0584   -2.8866    3.1409 H         1 <0>         0.4284
@<TRIPOS>BOND
     1    1    2 1
     2    1   22 1
     3    1   23 1
     4    1   24 1
     5    2    7 ar
     6    2    3 ar
     7    3    4 ar
     8    3   25 1
     9    4    5 ar
    10    4   26 1
    11    5   10 1
    12    5    6 ar
    13    6    7 ar
    14    6    8 1
    15    7   27 1
    16    8    9 1
    17    8   44 1
    18    9   10 2
    19    9   11 1
    20   11   12 1
    21   12   13 1
    22   12   28 1
    23   12   29 1
    24   13   14 1
    25   13   30 1
    26   13   31 1
    27   14   15 1
    28   14   32 1
    29   14   33 1
    30   15   16 1
    31   15   34 1
    32   15   35 1
    33   16   17 1
    34   16   18 1
    35   16   21 1
    36   17   36 1
    37   17   37 1
    38   17   38 1
    39   18   19 2
    40   18   20 am
    41   20   39 1
    42   20   40 1
    43   21   41 1
    44   21   42 1
    45   21   43 1
@<TRIPOS>MOLECULE
ZINC09033668
   83    89     0     0     0
SMALL
USER_CHARGES
1-(3-hydroxy-10,13-dimethyl-2,3,4,7,8,9,11,12,14,15-decahydro-1H-cyclopenta[a]phenanthren-17-yl)-2-(methoxy-methyl-BLAHyl)-ethanone
@<TRIPOS>ATOM
      1 C1         -1.2596   -3.0625    1.6763 C.3       1 <0>        -0.1490
      2 C2         -2.1124   -2.2654    2.6653 C.3       1 <0>        -0.0136
      3 C3         -1.7577   -2.7488    4.0748 C.3       1 <0>        -0.1030
      4 C4         -2.1235   -4.2286    4.2088 C.3       1 <0>        -0.1171
      5 C5         -3.6329   -4.4061    4.0374 C.3       1 <0>         0.1087
      6 H1         -4.1564   -3.7856    4.7647 H         1 <0>         0.0545
      7 C6         -4.0401   -3.9868    2.6216 C.3       1 <0>        -0.1192
      8 C7         -3.5551   -2.5660    2.3864 C.2       1 <0>        -0.1016
      9 C8         -4.4087   -1.6855    1.9538 C.2       1 <0>        -0.1577
     10 C9         -4.0451   -0.2520    1.6982 C.3       1 <0>        -0.0834
     11 C10        -2.5494   -0.1594    1.3720 C.3       1 <0>        -0.0668
     12 H2         -2.3551   -0.7207    0.4580 H         1 <0>         0.0738
     13 C11        -1.7621   -0.7942    2.5142 C.3       1 <0>        -0.0656
     14 H3         -1.9850   -0.2707    3.4439 H         1 <0>         0.0719
     15 C12        -0.2656   -0.6642    2.2004 C.3       1 <0>        -0.1169
     16 C13         0.0965    0.8165    2.1678 C.3       1 <0>        -0.1057
     17 C14        -0.6497    1.5358    1.0413 C.3       1 <0>        -0.0072
     18 C15        -2.1620    1.2614    1.1202 C.3       1 <0>        -0.0688
     19 H4         -2.6385    1.6058    0.2024 H         1 <0>         0.0781
     20 C16        -2.5663    2.2035    2.2728 C.3       1 <0>        -0.1148
     21 C17        -1.6544    3.4002    2.0506 C.2       1 <0>        -0.0271
     22 C18        -0.5621    3.0284    1.3575 C.2       1 <0>        -0.2381
     23 C19         0.5330    3.9106    0.9553 C.2       1 <0>         0.4209
     24 O1          0.4731    5.0989    1.1927 O.2       1 <0>        -0.4708
     25 C20         1.7357    3.3436    0.2460 C.3       1 <0>        -0.1966
     26 C21         2.7909    4.4384    0.0765 C.3       1 <0>         0.1042
     27 H5          3.6941    4.0040   -0.3520 H         1 <0>         0.1502
     28 C22         3.1152    5.0291    1.4238 C.ar      1 <0>        -0.1263
     29 C23         3.2668    6.3876    1.6052 C.ar      1 <0>        -0.0488
     30 C24         3.5705    6.8894    2.8615 C.ar      1 <0>        -0.0967
     31 C25         3.7223    6.0362    3.9417 C.ar      1 <0>         0.0765
     32 C26         3.5673    4.6656    3.7640 C.ar      1 <0>         0.0274
     33 C27         3.2640    4.1664    2.5051 C.ar      1 <0>         0.1322
     34 O2          3.1116    2.8267    2.3275 O.3       1 <0>        -0.3239
     35 C28         4.2948    2.0674    2.0716 C.3       1 <0>         0.0229
     36 O3          3.7632    4.0443    4.9647 O.3       1 <0>        -0.2914
     37 C29         4.4409    5.0099    5.7904 C.3       1 <0>         0.2091
     38 O4          4.0160    6.2763    5.2531 O.3       1 <0>        -0.2958
     39 C30         3.1099    7.3600    0.4639 C.3       1 <0>        -0.1021
     40 C31         3.1974    6.6176   -0.8698 C.3       1 <0>         0.0010
     41 C32         2.0480    4.9283   -2.1729 C.3       1 <0>        -0.0487
     42 C33        -0.0735    1.1990   -0.3354 C.3       1 <0>        -0.1517
     43 O5         -3.9777   -5.7771    4.2457 O.3       1 <0>        -0.5677
     44 H6         -0.2039   -2.9038    1.8967 H         1 <0>         0.0633
     45 H7         -1.4941   -4.1231    1.7668 H         1 <0>         0.0597
     46 H8         -1.4730   -2.7285    0.6610 H         1 <0>         0.0538
     47 H9         -2.3150   -2.1682    4.8099 H         1 <0>         0.0641
     48 H10        -0.6886   -2.6214    4.2453 H         1 <0>         0.0726
     49 H11        -1.8259   -4.5877    5.1940 H         1 <0>         0.0714
     50 H12        -1.6019   -4.8008    3.4416 H         1 <0>         0.0748
     51 H13        -5.1251   -4.0253    2.5248 H         1 <0>         0.0705
     52 H14        -3.5818   -4.6566    1.8940 H         1 <0>         0.0810
     53 H15        -5.4255   -2.0000    1.7704 H         1 <0>         0.1062
     54 H16        -4.2614    0.3421    2.5861 H         1 <0>         0.0753
     55 H17        -4.6253    0.1267    0.8567 H         1 <0>         0.0710
     56 H18        -0.0546   -1.1141    1.2303 H         1 <0>         0.0721
     57 H19         0.3180   -1.1668    2.9717 H         1 <0>         0.0683
     58 H20         1.1700    0.9196    2.0095 H         1 <0>         0.0657
     59 H21        -0.1696    1.2717    3.1217 H         1 <0>         0.0633
     60 H22        -3.6136    2.4932    2.1873 H         1 <0>         0.0879
     61 H23        -2.3722    1.7387    3.2395 H         1 <0>         0.0990
     62 H24        -1.8484    4.4013    2.4064 H         1 <0>         0.1390
     63 H25         2.1177    2.5932    0.7854 H         1 <0>         0.1519
     64 H26         1.4375    2.9715   -0.7341 H         1 <0>         0.1284
     65 H27         3.6899    7.9540    2.9987 H         1 <0>         0.1514
     66 H28         4.8173    2.4874    1.2122 H         1 <0>         0.0500
     67 H29         4.9454    2.1030    2.9454 H         1 <0>         0.0589
     68 H30         4.0241    1.0325    1.8620 H         1 <0>         0.1082
     69 H31         5.5216    4.8991    5.7011 H         1 <0>         0.0957
     70 H32         4.1316    4.9120    6.8310 H         1 <0>         0.1445
     71 H33         3.9012    8.1079    0.5144 H         1 <0>         0.1278
     72 H34         2.1414    7.8542    0.5401 H         1 <0>         0.1107
     73 H35         4.2162    6.2623   -1.0251 H         1 <0>         0.1342
     74 H36         2.9122    7.2872   -1.6811 H         1 <0>         0.1407
     75 H37         1.2377    4.2000   -2.1386 H         1 <0>         0.1196
     76 H38         1.7801    5.7383   -2.8512 H         1 <0>         0.1295
     77 H39         2.9576    4.4434   -2.5273 H         1 <0>         0.1271
     78 H40        -0.2999    0.1613   -0.5801 H         1 <0>         0.0709
     79 H41         1.0070    1.3418   -0.3219 H         1 <0>         0.0615
     80 H42        -0.5172    1.8542   -1.0851 H         1 <0>         0.0564
     81 H43        -4.9221   -5.9636    4.1533 H         1 <0>         0.3799
     82 N1          2.2562    5.4809   -0.8153 N.4       1 <0>        -0.3970
     83 H44         1.3557    5.8085   -0.4464 H         1 <0>         0.4354
@<TRIPOS>BOND
     1    1    2 1
     2    1   44 1
     3    1   45 1
     4    1   46 1
     5    2    8 1
     6    2   13 1
     7    2    3 1
     8    3    4 1
     9    3   47 1
    10    3   48 1
    11    4    5 1
    12    4   49 1
    13    4   50 1
    14    5    6 1
    15    5    7 1
    16    5   43 1
    17    7    8 1
    18    7   51 1
    19    7   52 1
    20    8    9 2
    21    9   10 1
    22    9   53 1
    23   10   11 1
    24   10   54 1
    25   10   55 1
    26   11   12 1
    27   11   18 1
    28   11   13 1
    29   13   14 1
    30   13   15 1
    31   15   16 1
    32   15   56 1
    33   15   57 1
    34   16   17 1
    35   16   58 1
    36   16   59 1
    37   17   22 1
    38   17   18 1
    39   17   42 1
    40   18   19 1
    41   18   20 1
    42   20   21 1
    43   20   60 1
    44   20   61 1
    45   21   22 2
    46   21   62 1
    47   22   23 1
    48   23   24 2
    49   23   25 1
    50   25   26 1
    51   25   63 1
    52   25   64 1
    53   26   27 1
    54   26   28 1
    55   26   82 1
    56   28   33 ar
    57   28   29 ar
    58   29   30 ar
    59   29   39 1
    60   30   31 ar
    61   30   65 1
    62   31   38 1
    63   31   32 ar
    64   32   33 ar
    65   32   36 1
    66   33   34 1
    67   34   35 1
    68   35   66 1
    69   35   67 1
    70   35   68 1
    71   36   37 1
    72   37   38 1
    73   37   69 1
    74   37   70 1
    75   39   40 1
    76   39   71 1
    77   39   72 1
    78   40   73 1
    79   40   74 1
    80   40   82 1
    81   41   75 1
    82   41   76 1
    83   41   77 1
    84   41   82 1
    85   42   78 1
    86   42   79 1
    87   42   80 1
    88   43   81 1
    89   82   83 1
@<TRIPOS>MOLECULE
ZINC16007121
   60    66     0     0     0
SMALL
USER_CHARGES
(1R,2S,3S,10bR)-2-(4-chlorobenzoyl)-3-(furan-2-carbonyl)spiro[3,10b-dihydro-2H-benzo[g]indolizine-1,3'-indoline]-2'-one
@<TRIPOS>ATOM
      1 C1         -7.1685   -2.7106   -2.1375 C.ar      1 <0>        -0.0935
      2 C2         -6.8469   -3.2235   -0.8931 C.ar      1 <0>        -0.0812
      3 C3         -5.5372   -3.5598   -0.5955 C.ar      1 <0>        -0.0743
      4 C4         -4.5367   -3.3765   -1.5264 C.ar      1 <0>        -0.1160
      5 C5         -4.8629   -2.8887   -2.7941 C.ar      1 <0>        -0.0964
      6 C6         -6.1876   -2.5543   -3.0912 C.ar      1 <0>        -0.0708
      7 C7         -3.8319   -2.7221   -3.8390 C.2       1 <0>        -0.0309
      8 C8         -2.5332   -2.8240   -3.5085 C.2       1 <0>        -0.0723
      9 C9         -3.1077   -3.7026   -1.1986 C.3       1 <0>         0.1206
     10 H1         -2.9686   -4.7945   -1.2304 H         1 <0>         0.1925
     11 C10        -2.6719   -3.1868    0.1719 C.3       1 <0>        -0.0697
     12 C11        -3.7000   -2.3503    0.8490 C.ar      1 <0>        -0.1760
     13 C12        -4.4329   -1.2537    0.4429 C.ar      1 <0>        -0.0414
     14 C13        -5.3191   -0.6976    1.3591 C.ar      1 <0>        -0.1282
     15 C14        -5.4666   -1.2236    2.6265 C.ar      1 <0>        -0.0571
     16 C15        -4.7553   -2.3399    3.0422 C.ar      1 <0>        -0.1242
     17 C16        -3.8816   -2.9177    2.1222 C.ar      1 <0>         0.1590
     18 N1         -3.1254   -4.0698    2.2481 N.am      1 <0>        -0.6493
     19 C17        -2.4449   -4.3499    1.1172 C.2       1 <0>         0.5349
     20 O1         -1.7858   -5.3423    0.8909 O.2       1 <0>        -0.4479
     21 C18        -1.3459   -2.4388   -0.0426 C.3       1 <0>        -0.1386
     22 H2         -0.6614   -2.7827    0.6002 H         1 <0>         0.1321
     23 C19        -0.9543   -2.7475   -1.5078 C.3       1 <0>         0.0141
     24 H3         -0.4338   -1.9802   -1.8824 H         1 <0>         0.1521
     25 C20        -0.0045   -3.9158   -1.5741 C.2       1 <0>         0.4536
     26 O2         -0.4220   -5.0231   -1.8466 O.2       1 <0>        -0.3890
     27 C21         1.3720   -3.7227   -1.3192 C.2       1 <0>        -0.1503
     28 C22         2.3321   -4.7119   -1.2421 C.2       1 <0>        -0.0529
     29 C23         3.5477   -4.0676   -0.9767 C.2       1 <0>        -0.2288
     30 C24         3.2893   -2.7421   -0.8956 C.2       1 <0>         0.0456
     31 O3          1.9827   -2.5382   -1.1016 O.3       1 <0>        -0.1627
     32 C25        -1.4803   -0.9524    0.1821 C.2       1 <0>         0.4259
     33 O4         -1.7873   -0.2254   -0.7385 O.2       1 <0>        -0.4377
     34 C26        -1.2387   -0.3858    1.5178 C.ar      1 <0>        -0.1714
     35 C27        -1.3282    0.9953    1.7220 C.ar      1 <0>        -0.0291
     36 C28        -1.1010    1.5192    2.9763 C.ar      1 <0>        -0.1180
     37 C29        -0.7846    0.6815    4.0337 C.ar      1 <0>         0.0115
     38 C30        -0.6941   -0.6874    3.8388 C.ar      1 <0>        -0.1180
     39 C31        -0.9187   -1.2254    2.5901 C.ar      1 <0>        -0.0547
     40 Cl1        -0.4994    1.3503    5.6101 Cl        1 <0>        -0.0383
     41 H4         -8.1850   -2.4232   -2.3558 H         1 <0>         0.1438
     42 H5         -7.6206   -3.3638   -0.1534 H         1 <0>         0.1419
     43 H6         -5.2992   -3.9872    0.3680 H         1 <0>         0.1319
     44 H7         -6.4378   -2.1846   -4.0744 H         1 <0>         0.1452
     45 H8         -4.1267   -2.5171   -4.8617 H         1 <0>         0.1845
     46 H9         -1.7563   -2.7176   -4.2601 H         1 <0>         0.2196
     47 H10        -4.3329   -0.8522   -0.5556 H         1 <0>         0.1292
     48 H11        -5.9083    0.1595    1.0691 H         1 <0>         0.1371
     49 H12        -6.1478   -0.7477    3.3145 H         1 <0>         0.1397
     50 H13        -4.8797   -2.7448    4.0359 H         1 <0>         0.1473
     51 H14        -3.0915   -4.6137    3.0524 H         1 <0>         0.4320
     52 H15         2.1768   -5.7737   -1.3641 H         1 <0>         0.1722
     53 H16         4.5107   -4.5412   -0.8552 H         1 <0>         0.1717
     54 H17         4.0199   -1.9722   -0.6961 H         1 <0>         0.2241
     55 H18        -1.5704    1.6498    0.8977 H         1 <0>         0.1498
     56 H19        -1.1695    2.5852    3.1354 H         1 <0>         0.1501
     57 H20        -0.4474   -1.3344    4.6677 H         1 <0>         0.1462
     58 H21        -0.8475   -2.2925    2.4395 H         1 <0>         0.1270
     59 N2         -2.3108   -2.7539   -2.0033 N.4       1 <0>        -0.3494
     60 H22        -2.6711   -1.8258   -1.7524 H         1 <0>         0.4333
@<TRIPOS>BOND
     1    1    6 ar
     2    1    2 ar
     3    1   41 1
     4    2    3 ar
     5    2   42 1
     6    3    4 ar
     7    3   43 1
     8    4    9 1
     9    4    5 ar
    10    5    6 ar
    11    5    7 1
    12    6   44 1
    13    7    8 2
    14    7   45 1
    15    8   46 1
    16    8   59 1
    17    9   10 1
    18    9   11 1
    19    9   59 1
    20   11   19 1
    21   11   12 1
    22   11   21 1
    23   12   17 ar
    24   12   13 ar
    25   13   14 ar
    26   13   47 1
    27   14   15 ar
    28   14   48 1
    29   15   16 ar
    30   15   49 1
    31   16   17 ar
    32   16   50 1
    33   17   18 1
    34   18   19 am
    35   18   51 1
    36   19   20 2
    37   21   22 1
    38   21   23 1
    39   21   32 1
    40   23   24 1
    41   23   25 1
    42   23   59 1
    43   25   26 2
    44   25   27 1
    45   27   31 1
    46   27   28 2
    47   28   29 1
    48   28   52 1
    49   29   30 2
    50   29   53 1
    51   30   31 1
    52   30   54 1
    53   32   33 2
    54   32   34 1
    55   34   39 ar
    56   34   35 ar
    57   35   36 ar
    58   35   55 1
    59   36   37 ar
    60   36   56 1
    61   37   38 ar
    62   37   40 1
    63   38   39 ar
    64   38   57 1
    65   39   58 1
    66   59   60 1
@<TRIPOS>MOLECULE
ZINC34997634
   78    82     0     0     0
SMALL
USER_CHARGES

@<TRIPOS>ATOM
      1 C1          1.7321    0.7219    0.2265 C.3       1 <0>        -0.1088
      2 C2          0.7314   -0.3828    0.0043 C.ar      1 <0>        -0.0959
      3 C3          0.7460   -1.1019   -1.1748 C.ar      1 <0>        -0.1106
      4 C4         -0.1719   -2.1157   -1.3795 C.ar      1 <0>        -0.1094
      5 C5         -1.1072   -2.4126   -0.4052 C.ar      1 <0>        -0.1106
      6 C6         -1.1273   -1.6969    0.7759 C.ar      1 <0>        -0.0691
      7 C7         -0.2026   -0.6826    0.9872 C.ar      1 <0>         0.1376
      8 N1         -0.2163    0.0403    2.1854 N.am      1 <0>        -0.6758
      9 C8         -0.3037   -0.6090    3.3632 C.2       1 <0>         0.7084
     10 O1         -0.3084   -1.8246    3.3884 O.2       1 <0>        -0.5418
     11 N2         -0.3860    0.0891    4.5131 N.am      1 <0>        -0.6451
     12 C9         -0.2758    1.5561    4.5169 C.3       1 <0>         0.0867
     13 C10         0.7619    1.9625    5.5684 C.3       1 <0>        -0.0190
     14 N3          0.3974    1.3788    6.8655 N.4       1 <0>        -0.3768
     15 C11         0.4634   -0.0862    6.7910 C.3       1 <0>        -0.0270
     16 C12        -0.5947   -0.5937    5.7993 C.3       1 <0>         0.1091
     17 C13         1.3295    1.8574    7.8951 C.3       1 <0>        -0.0323
     18 C14         0.8784    1.3510    9.2666 C.3       1 <0>         0.0873
     19 N4          1.8079    1.8283   10.2934 N.am      1 <0>        -0.5980
     20 C15         1.5290    3.0742   11.0119 C.3       1 <0>         0.1617
     21 C16         0.7176    2.7719   12.2453 C.2       1 <0>        -0.1620
     22 C17         1.2908    2.6073   13.4154 C.2       1 <0>        -0.0997
     23 C18         0.4409    2.3140   14.6280 C.3       1 <0>        -0.0842
     24 C19        -1.0300    2.1839   14.2095 C.3       1 <0>        -0.1072
     25 H1         -1.7020    1.9376   15.0316 H         1 <0>         0.0850
     26 C20        -1.2170    1.3308   12.9432 C.3       1 <0>        -0.1333
     27 C21        -0.7952    2.6520   12.1845 C.3       1 <0>        -0.0610
     28 H2         -1.2280    2.8059   11.1960 H         1 <0>         0.0788
     29 C22        -1.4651    3.3905   13.3528 C.3       1 <0>        -0.0750
     30 C23        -0.7719    4.7009   13.7312 C.3       1 <0>        -0.1446
     31 C24        -2.9817    3.5327   13.2083 C.3       1 <0>        -0.1295
     32 C25         2.9197    1.1212   10.5771 C.2       1 <0>         0.6062
     33 O2          3.6428    1.4659   11.4932 O.2       1 <0>        -0.4847
     34 C26         3.2581   -0.0636    9.7817 C.2       1 <0>        -0.0947
     35 C27         4.2863   -0.9278   10.0271 C.2       1 <0>        -0.0947
     36 C28         4.2378   -1.9080    9.0236 C.2       1 <0>        -0.2032
     37 C29         3.1953   -1.6030    8.2198 C.2       1 <0>        -0.0204
     38 O3          2.6044   -0.4938    8.6827 O.3       1 <0>        -0.1892
     39 C30        -2.1476   -2.0205    1.8367 C.3       1 <0>        -0.1010
     40 H3          2.6270    0.3127    0.6952 H         1 <0>         0.0714
     41 H4          1.9963    1.1708   -0.7310 H         1 <0>         0.0748
     42 H5          1.2967    1.4813    0.8760 H         1 <0>         0.0538
     43 H6          1.4748   -0.8719   -1.9379 H         1 <0>         0.1298
     44 H7         -0.1584   -2.6765   -2.3023 H         1 <0>         0.1294
     45 H8         -1.8230   -3.2047   -0.5682 H         1 <0>         0.1291
     46 H9         -0.1628    1.0087    2.1682 H         1 <0>         0.4013
     47 H10         0.0440    1.9019    3.5339 H         1 <0>         0.1198
     48 H11        -1.2417    1.9953    4.7665 H         1 <0>         0.1018
     49 H12         1.7446    1.5981    5.2691 H         1 <0>         0.1352
     50 H13         0.7873    3.0489    5.6531 H         1 <0>         0.1467
     51 H14         1.4552   -0.3886    6.4547 H         1 <0>         0.1349
     52 H15         0.2689   -0.5094    7.7764 H         1 <0>         0.1457
     53 H16        -1.5922   -0.3679    6.1763 H         1 <0>         0.0969
     54 H17        -0.4858   -1.6698    5.6646 H         1 <0>         0.1404
     55 H18         2.3307    1.4834    7.6810 H         1 <0>         0.1351
     56 H19         1.3413    2.9473    7.8962 H         1 <0>         0.1365
     57 H20        -0.1228    1.7250    9.4807 H         1 <0>         0.1070
     58 H21         0.8665    0.2610    9.2656 H         1 <0>         0.1089
     59 H22         2.4685    3.5448   11.3014 H         1 <0>         0.0990
     60 H23         0.9687    3.7491   10.3648 H         1 <0>         0.0882
     61 H24         2.3641    2.6810   13.5095 H         1 <0>         0.1208
     62 H25         0.7716    1.3816   15.0856 H         1 <0>         0.0798
     63 H26         0.5428    3.1265   15.3474 H         1 <0>         0.0863
     64 H27        -0.5099    0.5056   12.8583 H         1 <0>         0.0667
     65 H28        -2.2491    1.0312   12.7610 H         1 <0>         0.0849
     66 H29         0.2789    4.5071   13.9464 H         1 <0>         0.0666
     67 H30        -0.8493    5.4052   12.9030 H         1 <0>         0.0532
     68 H31        -1.2515    5.1239   14.6139 H         1 <0>         0.0561
     69 H32        -3.3908    3.9929   14.1077 H         1 <0>         0.0627
     70 H33        -3.2073    4.1587   12.3450 H         1 <0>         0.0576
     71 H34        -3.4273    2.5477   13.0693 H         1 <0>         0.0584
     72 H35         4.9989   -0.8687   10.8365 H         1 <0>         0.1656
     73 H36         4.9079   -2.7479    8.9142 H         1 <0>         0.1635
     74 H37         2.8872   -2.1632    7.3494 H         1 <0>         0.2143
     75 H38        -1.7965   -2.8621    2.4338 H         1 <0>         0.0897
     76 H39        -2.2901   -1.1526    2.4805 H         1 <0>         0.0479
     77 H40        -3.0941   -2.2809    1.3630 H         1 <0>         0.0601
     78 H41        -0.5409    1.6600    7.1078 H         1 <0>         0.4238
@<TRIPOS>BOND
     1    1    2 1
     2    1   40 1
     3    1   41 1
     4    1   42 1
     5    2    7 ar
     6    2    3 ar
     7    3    4 ar
     8    3   43 1
     9    4    5 ar
    10    4   44 1
    11    5    6 ar
    12    5   45 1
    13    6    7 ar
    14    6   39 1
    15    7    8 1
    16    8    9 am
    17    8   46 1
    18    9   10 2
    19    9   11 am
    20   11   16 1
    21   11   12 1
    22   12   13 1
    23   12   47 1
    24   12   48 1
    25   13   14 1
    26   13   49 1
    27   13   50 1
    28   14   15 1
    29   14   17 1
    30   14   78 1
    31   15   16 1
    32   15   51 1
    33   15   52 1
    34   16   53 1
    35   16   54 1
    36   17   18 1
    37   17   55 1
    38   17   56 1
    39   18   19 1
    40   18   57 1
    41   18   58 1
    42   19   20 1
    43   19   32 am
    44   20   21 1
    45   20   59 1
    46   20   60 1
    47   21   27 1
    48   21   22 2
    49   22   23 1
    50   22   61 1
    51   23   24 1
    52   23   62 1
    53   23   63 1
    54   24   25 1
    55   24   29 1
    56   24   26 1
    57   26   27 1
    58   26   64 1
    59   26   65 1
    60   27   28 1
    61   27   29 1
    62   29   30 1
    63   29   31 1
    64   30   66 1
    65   30   67 1
    66   30   68 1
    67   31   69 1
    68   31   70 1
    69   31   71 1
    70   32   33 2
    71   32   34 1
    72   34   38 1
    73   34   35 2
    74   35   36 1
    75   35   72 1
    76   36   37 2
    77   36   73 1
    78   37   38 1
    79   37   74 1
    80   39   75 1
    81   39   76 1
    82   39   77 1
@<TRIPOS>MOLECULE
ZINC43528143
   68    72     0     0     0
SMALL
USER_CHARGES

@<TRIPOS>ATOM
      1 C1         -0.0184    1.5028    0.0103 C.3       1 <0>        -0.0938
      2 C2          0.0021   -0.0041    0.0020 C.ar      1 <0>         0.3475
      3 N1          0.0052   -0.6373   -1.1525 N.ar      1 <0>        -0.4807
      4 C3          0.0235   -1.9679   -1.1976 C.ar      1 <0>         0.2332
      5 C4          0.0394   -2.6841    0.0026 C.ar      1 <0>        -0.2452
      6 C5          0.0354   -1.9742    1.1896 C.ar      1 <0>         0.1804
      7 N2          0.0218   -0.6504    1.1506 N.ar      1 <0>        -0.5121
      8 C6          0.0515   -2.6982    2.5112 C.3       1 <0>        -0.0489
      9 H1         -0.3876   -2.0633    3.2808 H         1 <0>         0.1348
     10 C7         -0.7531   -3.9948    2.3955 C.3       1 <0>        -0.0089
     11 N3          0.1067   -5.1457    2.6815 N.4       1 <0>        -0.3737
     12 C8          1.2040   -5.2226    1.7142 C.3       1 <0>        -0.0175
     13 C9          2.0735   -3.9667    1.8071 C.3       1 <0>        -0.1462
     14 C10         1.4976   -3.0419    2.8916 C.3       1 <0>        -0.0858
     15 H2          2.0932   -2.1326    2.9724 H         1 <0>         0.1276
     16 C11         1.4791   -3.8094    4.2201 C.3       1 <0>        -0.1258
     17 C12         0.6280   -5.0730    4.0484 C.3       1 <0>         0.0179
     18 H3         -0.2041   -5.0454    4.7519 H         1 <0>         0.1490
     19 C13         1.4873   -6.3071    4.3304 C.3       1 <0>         0.1171
     20 N4          0.7054   -7.5174    4.0658 N.am      1 <0>        -0.7688
     21 C14         1.2612   -8.7318    4.2468 C.2       1 <0>         0.7063
     22 O1          2.4116   -8.8229    4.6296 O.2       1 <0>        -0.5670
     23 N5          0.5418   -9.8452    4.0034 N.am      1 <0>        -0.7345
     24 C15         1.1461  -11.1653    4.2001 C.3       1 <0>         0.1605
     25 C16         1.9179  -11.5656    2.9412 C.3       1 <0>        -0.1269
     26 C17         2.5489  -12.9442    3.1466 C.3       1 <0>        -0.1195
     27 C18         1.4496  -13.9727    3.4195 C.3       1 <0>        -0.1244
     28 C19         0.6777  -13.5724    4.6784 C.3       1 <0>        -0.1181
     29 C20         0.0467  -12.1938    4.4729 C.3       1 <0>        -0.1260
     30 C21         0.0265   -2.6781   -2.4992 C.ar      1 <0>        -0.0513
     31 C22         0.0399   -4.0715   -2.5361 C.ar      1 <0>        -0.0901
     32 C23         0.0421   -4.7271   -3.7502 C.ar      1 <0>        -0.1099
     33 C24         0.0316   -4.0045   -4.9302 C.ar      1 <0>        -0.0847
     34 C25         0.0183   -2.6222   -4.9008 C.ar      1 <0>        -0.0937
     35 C26         0.0101   -1.9547   -3.6914 C.ar      1 <0>        -0.0504
     36 Br1        -0.0161   -0.0642   -3.6525 Br        1 <0>         0.0053
     37 H4          1.0042    1.8801    0.0026 H         1 <0>         0.0942
     38 H5         -0.5455    1.8639   -0.8728 H         1 <0>         0.0913
     39 H6         -0.5286    1.8543    0.9071 H         1 <0>         0.0916
     40 H7          0.0541   -3.7640    0.0030 H         1 <0>         0.1370
     41 H8         -1.5778   -3.9735    3.1080 H         1 <0>         0.1444
     42 H9         -1.1524   -4.0837    1.3852 H         1 <0>         0.1369
     43 H10         1.8133   -6.1009    1.9274 H         1 <0>         0.1387
     44 H11         0.7937   -5.3047    0.7077 H         1 <0>         0.1277
     45 H12         3.0932   -4.2471    2.0709 H         1 <0>         0.1087
     46 H13         2.0714   -3.4491    0.8479 H         1 <0>         0.1021
     47 H14         2.4964   -4.0873    4.4957 H         1 <0>         0.1131
     48 H15         1.0462   -3.1814    4.9988 H         1 <0>         0.1128
     49 H16         2.3655   -6.2936    3.6849 H         1 <0>         0.0964
     50 H17         1.8030   -6.2994    5.3737 H         1 <0>         0.1153
     51 H18        -0.2124   -7.4447    3.7604 H         1 <0>         0.3876
     52 H19        -0.3759   -9.7726    3.6979 H         1 <0>         0.3958
     53 H20         1.8289  -11.1294    5.0489 H         1 <0>         0.0923
     54 H21         1.2351  -11.6014    2.0923 H         1 <0>         0.0624
     55 H22         2.7011  -10.8328    2.7468 H         1 <0>         0.0655
     56 H23         3.0988  -13.2294    2.2497 H         1 <0>         0.0680
     57 H24         3.2318  -12.9084    3.9955 H         1 <0>         0.0667
     58 H25         0.7667  -14.0085    2.5706 H         1 <0>         0.0633
     59 H26         1.8991  -14.9548    3.5658 H         1 <0>         0.0685
     60 H27        -0.1055  -14.3051    4.8728 H         1 <0>         0.0716
     61 H28         1.3606  -13.5366    5.5272 H         1 <0>         0.0676
     62 H29        -0.5032  -11.9086    5.3698 H         1 <0>         0.0695
     63 H30        -0.6361  -12.2296    3.6241 H         1 <0>         0.0683
     64 H31         0.0489   -4.6370   -1.6160 H         1 <0>         0.1245
     65 H32         0.0525   -5.8067   -3.7796 H         1 <0>         0.1377
     66 H33         0.0341   -4.5223   -5.8779 H         1 <0>         0.1415
     67 H34         0.0104   -2.0634   -5.8250 H         1 <0>         0.1436
     68 H35        -0.4452   -5.9859    2.5946 H         1 <0>         0.4193
@<TRIPOS>BOND
     1    1    2 1
     2    1   37 1
     3    1   38 1
     4    1   39 1
     5    2    7 ar
     6    2    3 ar
     7    3    4 ar
     8    4    5 ar
     9    4   30 1
    10    5    6 ar
    11    5   40 1
    12    6    7 ar
    13    6    8 1
    14    8    9 1
    15    8   14 1
    16    8   10 1
    17   10   11 1
    18   10   41 1
    19   10   42 1
    20   11   17 1
    21   11   12 1
    22   11   68 1
    23   12   13 1
    24   12   43 1
    25   12   44 1
    26   13   14 1
    27   13   45 1
    28   13   46 1
    29   14   15 1
    30   14   16 1
    31   16   17 1
    32   16   47 1
    33   16   48 1
    34   17   18 1
    35   17   19 1
    36   19   20 1
    37   19   49 1
    38   19   50 1
    39   20   21 am
    40   20   51 1
    41   21   22 2
    42   21   23 am
    43   23   24 1
    44   23   52 1
    45   24   29 1
    46   24   25 1
    47   24   53 1
    48   25   26 1
    49   25   54 1
    50   25   55 1
    51   26   27 1
    52   26   56 1
    53   26   57 1
    54   27   28 1
    55   27   58 1
    56   27   59 1
    57   28   29 1
    58   28   60 1
    59   28   61 1
    60   29   62 1
    61   29   63 1
    62   30   35 ar
    63   30   31 ar
    64   31   32 ar
    65   31   64 1
    66   32   33 ar
    67   32   65 1
    68   33   34 ar
    69   33   66 1
    70   34   35 ar
    71   34   67 1
    72   35   36 1
@<TRIPOS>MOLECULE
ZINC63165703
   60    65     0     0     0
SMALL
USER_CHARGES

@<TRIPOS>ATOM
      1 C1          0.0911    1.3650   -0.0061 C.ar      1 <0>        -0.1482
      2 C2          1.2896    2.0917    0.0023 C.ar      1 <0>         0.0626
      3 C3          2.5010    1.4964    0.0002 C.ar      1 <0>        -0.2100
      4 C4          2.6084    0.0797   -0.0101 C.ar      1 <0>         0.3345
      5 N1          3.6536   -0.7173    0.0104 N.pl3     1 <0>        -0.5775
      6 C5          3.1866   -2.0945   -0.1086 C.3       1 <0>         0.0489
      7 H1          3.4833   -2.5167   -1.0687 H         1 <0>         0.1728
      8 C6          3.6717   -2.9828    1.0404 C.3       1 <0>         0.1505
      9 H2          3.4903   -2.4836    1.9922 H         1 <0>         0.1272
     10 N2          2.9238   -4.2492    0.9943 N.3       1 <0>        -0.6630
     11 C7          1.4975   -4.0893    1.2928 C.3       1 <0>         0.0654
     12 C8          0.8194   -3.2484    0.1953 C.3       1 <0>        -0.0520
     13 H3         -0.1858   -2.9654    0.5078 H         1 <0>         0.1399
     14 C9          1.6714   -2.0149   -0.0052 C.2       1 <0>         0.0627
     15 C10         1.3543   -0.7146   -0.0096 C.ar      1 <0>        -0.1460
     16 C11         0.0788    0.0134   -0.0121 C.ar      1 <0>        -0.0092
     17 C12         0.7602   -4.0288   -1.0925 C.ar      1 <0>        -0.0838
     18 C13         1.9271   -4.3470   -1.7620 C.ar      1 <0>        -0.1204
     19 C14         1.8736   -5.0626   -2.9431 C.ar      1 <0>        -0.0892
     20 C15         0.6519   -5.4614   -3.4560 C.ar      1 <0>        -0.0134
     21 C16        -0.5159   -5.1438   -2.7865 C.ar      1 <0>        -0.0848
     22 C17        -0.4614   -4.4315   -1.6016 C.ar      1 <0>        -0.0090
     23 Cl1        -1.9262   -4.0376   -0.7573 Cl        1 <0>        -0.0322
     24 Cl2         0.5849   -6.3598   -4.9400 Cl        1 <0>        -0.0287
     25 C18         5.1453   -3.2564    0.8833 C.ar      1 <0>        -0.1160
     26 C19         5.5764   -4.2244   -0.0055 C.ar      1 <0>        -0.0483
     27 C20         6.9259   -4.4774   -0.1523 C.ar      1 <0>        -0.1165
     28 C21         7.8510   -3.7583    0.5942 C.ar      1 <0>         0.2871
     29 C22         7.4147   -2.7869    1.4859 C.ar      1 <0>        -0.0574
     30 C23         6.0635   -2.5353    1.6239 C.ar      1 <0>        -0.0434
     31 N3          8.3966   -2.0188    2.2835 N.pl3     1 <0>         0.0309
     32 O1          8.0160   -1.1734    3.0595 O.2       1 <0>        -0.1777
     33 O2          9.5793   -2.2367    2.1591 O.3       1 <0>        -0.1085
     34 N4          9.2168   -4.0119    0.4486 N.pl3     1 <0>        -0.6926
     35 C24         9.9932   -4.9932    1.2206 C.3       1 <0>         0.1390
     36 C25        11.4554   -4.9046    0.7353 C.3       1 <0>        -0.1276
     37 C26        11.5304   -3.4841    0.1157 C.3       1 <0>        -0.1290
     38 C27        10.1174   -3.3446   -0.5090 C.3       1 <0>         0.1407
     39 H4         -0.8476    1.8992   -0.0033 H         1 <0>         0.1613
     40 H5          1.2420    3.1706    0.0103 H         1 <0>         0.1646
     41 H6          3.3955    2.1016    0.0062 H         1 <0>         0.1633
     42 H7          3.0580   -4.7164    0.1101 H         1 <0>         0.3579
     43 H8          1.0257   -5.0708    1.3398 H         1 <0>         0.1238
     44 H9          1.3833   -3.5887    2.2543 H         1 <0>         0.1078
     45 H10        -0.8576   -0.5246   -0.0183 H         1 <0>         0.1618
     46 H11         2.8809   -4.0359   -1.3621 H         1 <0>         0.1274
     47 H12         2.7855   -5.3102   -3.4660 H         1 <0>         0.1511
     48 H13        -1.4697   -5.4549   -3.1864 H         1 <0>         0.1579
     49 H14         4.8567   -4.7833   -0.5852 H         1 <0>         0.1398
     50 H15         7.2618   -5.2337   -0.8462 H         1 <0>         0.1566
     51 H16         5.7238   -1.7770    2.3138 H         1 <0>         0.1539
     52 H17         9.9400   -4.7549    2.2829 H         1 <0>         0.0533
     53 H18         9.6039   -5.9958    1.0436 H         1 <0>         0.0524
     54 H19        12.1462   -4.9967    1.5735 H         1 <0>         0.0842
     55 H20        11.6584   -5.6653   -0.0184 H         1 <0>         0.0747
     56 H21        11.6972   -2.7304    0.8853 H         1 <0>         0.0862
     57 H22        12.3021   -3.4332   -0.6525 H         1 <0>         0.0812
     58 H23        10.0774   -3.8427   -1.4777 H         1 <0>         0.0552
     59 H24         9.8503   -2.2927   -0.6111 H         1 <0>         0.0542
     60 H25         4.5788   -0.4373    0.0909 H         1 <0>         0.4537
@<TRIPOS>BOND
     1    1   16 ar
     2    1    2 ar
     3    1   39 1
     4    2    3 ar
     5    2   40 1
     6    3    4 ar
     7    3   41 1
     8    4   15 ar
     9    4    5 2
    10    5    6 1
    11    5   60 1
    12    6    7 1
    13    6   14 1
    14    6    8 1
    15    8    9 1
    16    8   10 1
    17    8   25 1
    18   10   11 1
    19   10   42 1
    20   11   12 1
    21   11   43 1
    22   11   44 1
    23   12   13 1
    24   12   14 1
    25   12   17 1
    26   14   15 2
    27   15   16 ar
    28   16   45 1
    29   17   22 ar
    30   17   18 ar
    31   18   19 ar
    32   18   46 1
    33   19   20 ar
    34   19   47 1
    35   20   21 ar
    36   20   24 1
    37   21   22 ar
    38   21   48 1
    39   22   23 1
    40   25   30 ar
    41   25   26 ar
    42   26   27 ar
    43   26   49 1
    44   27   28 ar
    45   27   50 1
    46   28   29 ar
    47   28   34 1
    48   29   30 ar
    49   29   31 1
    50   30   51 1
    51   31   32 2
    52   31   33 1
    53   34   38 1
    54   34   35 1
    55   35   36 1
    56   35   52 1
    57   35   53 1
    58   36   37 1
    59   36   54 1
    60   36   55 1
    61   37   38 1
    62   37   56 1
    63   37   57 1
    64   38   58 1
    65   38   59 1
@<TRIPOS>MOLECULE
ZINC08695755
   78    82     0     0     0
SMALL
USER_CHARGES
2-(1-cyclohex-3-enyl)-N-(4-dimethylaminophenyl)-2-[[2-(2,3-dioxoindolin-1-yl)acetyl]-(o-tolylmethyl)amino]-acetamide
@<TRIPOS>ATOM
      1 C1         -0.4796    2.4963   -3.6552 C.3       1 <0>        -0.1283
      2 C2         -1.1368    3.8175   -3.3492 C.ar      1 <0>        -0.0666
      3 C3         -1.9634    4.4115   -4.2848 C.ar      1 <0>        -0.1120
      4 C4         -2.5665    5.6230   -4.0040 C.ar      1 <0>        -0.1065
      5 C5         -2.3428    6.2411   -2.7877 C.ar      1 <0>        -0.1188
      6 C6         -1.5210    5.6445   -1.8502 C.ar      1 <0>        -0.1102
      7 C7         -0.9135    4.4352   -2.1331 C.ar      1 <0>        -0.1052
      8 C8         -0.0128    3.7875   -1.1132 C.3       1 <0>         0.1238
      9 N1         -0.7852    3.4746    0.0917 N.am      1 <0>        -0.5777
     10 C9         -1.6180    2.2701    0.1356 C.3       1 <0>         0.1306
     11 H1         -2.1129    2.2057    1.1046 H         1 <0>         0.1264
     12 C10        -2.6717    2.3381   -0.9717 C.3       1 <0>        -0.1021
     13 H2         -2.1868    2.5379   -1.9272 H         1 <0>         0.1050
     14 C11        -3.4282    1.0058   -1.0461 C.3       1 <0>        -0.1432
     15 C12        -4.3462    1.0381   -2.2699 C.3       1 <0>        -0.0835
     16 C13        -5.1481    2.3065   -2.2812 C.2       1 <0>        -0.1575
     17 C14        -4.8545    3.3564   -1.5834 C.2       1 <0>        -0.1456
     18 C15        -3.6738    3.4520   -0.6605 C.3       1 <0>        -0.0819
     19 C16        -0.7527    1.0533   -0.0684 C.2       1 <0>         0.5089
     20 O1          0.4094    1.1827   -0.3909 O.2       1 <0>        -0.5111
     21 N2         -1.2716   -0.1788    0.1019 N.am      1 <0>        -0.6629
     22 C17        -0.4925   -1.3112   -0.1715 C.ar      1 <0>         0.0813
     23 C18         0.4899   -1.2578   -1.1513 C.ar      1 <0>        -0.0690
     24 C19         1.2613   -2.3716   -1.4170 C.ar      1 <0>        -0.1809
     25 C20         1.0473   -3.5488   -0.7116 C.ar      1 <0>         0.2040
     26 C21         0.0608   -3.6037    0.2645 C.ar      1 <0>        -0.1777
     27 C22        -0.7069   -2.4881    0.5334 C.ar      1 <0>        -0.0937
     28 N3          1.8256   -4.6788   -0.9839 N.pl3     1 <0>        -0.6393
     29 C23         1.6891   -5.8793   -0.1554 C.3       1 <0>         0.0938
     30 C24         2.7771   -4.6618   -2.0977 C.3       1 <0>         0.0889
     31 C25        -0.7295    4.2947    1.1598 C.2       1 <0>         0.5032
     32 O2         -1.3218    4.0055    2.1779 O.2       1 <0>        -0.5168
     33 C26         0.0685    5.5710    1.0890 C.3       1 <0>         0.0878
     34 N4          0.0975    6.2028    2.4104 N.am      1 <0>        -0.5315
     35 C27        -0.8414    7.1296    2.8577 C.ar      1 <0>         0.2016
     36 C28        -1.9714    7.6591    2.2481 C.ar      1 <0>        -0.1485
     37 C29        -2.7583    8.5762    2.9192 C.ar      1 <0>        -0.0407
     38 C30        -2.4381    8.9746    4.2064 C.ar      1 <0>        -0.1547
     39 C31        -1.3233    8.4564    4.8335 C.ar      1 <0>        -0.0034
     40 C32        -0.5222    7.5307    4.1652 C.ar      1 <0>        -0.2346
     41 C33         0.7051    6.8046    4.5410 C.2       1 <0>         0.3953
     42 O3          1.3132    6.8714    5.5890 O.2       1 <0>        -0.3672
     43 C34         1.0366    5.9658    3.3425 C.2       1 <0>         0.4957
     44 O4          1.9806    5.2116    3.2340 O.2       1 <0>        -0.4401
     45 H3         -1.1522    1.6837   -3.3807 H         1 <0>         0.0707
     46 H4         -0.2569    2.4394   -4.7207 H         1 <0>         0.0716
     47 H5          0.4457    2.4102   -3.0855 H         1 <0>         0.0757
     48 H6         -2.1382    3.9286   -5.2349 H         1 <0>         0.1222
     49 H7         -3.2123    6.0869   -4.7348 H         1 <0>         0.1217
     50 H8         -2.8138    7.1879   -2.5684 H         1 <0>         0.1220
     51 H9         -1.3500    6.1250   -0.8982 H         1 <0>         0.1123
     52 H10         0.7974    4.4706   -0.8581 H         1 <0>         0.0925
     53 H11         0.4031    2.8689   -1.5269 H         1 <0>         0.1230
     54 H12        -2.7170    0.1855   -1.1431 H         1 <0>         0.0851
     55 H13        -4.0251    0.8724   -0.1438 H         1 <0>         0.0704
     56 H14        -3.7425    0.9842   -3.1759 H         1 <0>         0.0723
     57 H15        -5.0237    0.1849   -2.2360 H         1 <0>         0.0741
     58 H16        -6.0250    2.3456   -2.9105 H         1 <0>         0.1015
     59 H17        -5.4973    4.2197   -1.6725 H         1 <0>         0.1010
     60 H18        -4.0151    3.3535    0.3699 H         1 <0>         0.0720
     61 H19        -3.1889    4.4199   -0.7874 H         1 <0>         0.0787
     62 H20        -2.1843   -0.2818    0.4139 H         1 <0>         0.4117
     63 H21         0.6533   -0.3438   -1.7029 H         1 <0>         0.1368
     64 H22         2.0286   -2.3286   -2.1758 H         1 <0>         0.1270
     65 H23        -0.1056   -4.5188    0.8133 H         1 <0>         0.1260
     66 H24        -1.4741   -2.5308    1.2924 H         1 <0>         0.1240
     67 H25         0.9238   -6.5289   -0.5801 H         1 <0>         0.0480
     68 H26         2.6406   -6.4102   -0.1254 H         1 <0>         0.0665
     69 H27         1.4014   -5.5919    0.8559 H         1 <0>         0.0677
     70 H28         2.8041   -3.6648   -2.5374 H         1 <0>         0.0777
     71 H29         3.7697   -4.9244   -1.7317 H         1 <0>         0.0559
     72 H30         2.4656   -5.3836   -2.8528 H         1 <0>         0.0524
     73 H31         1.0867    5.3458    0.7715 H         1 <0>         0.1283
     74 H32        -0.3939    6.2494    0.3720 H         1 <0>         0.1263
     75 H33        -2.2332    7.3572    1.2447 H         1 <0>         0.1305
     76 H34        -3.6322    8.9861    2.4348 H         1 <0>         0.1396
     77 H35        -3.0612    9.6919    4.7199 H         1 <0>         0.1395
     78 H36        -1.0726    8.7659    5.8374 H         1 <0>         0.1402
@<TRIPOS>BOND
     1    1    2 1
     2    1   45 1
     3    1   46 1
     4    1   47 1
     5    2    7 ar
     6    2    3 ar
     7    3    4 ar
     8    3   48 1
     9    4    5 ar
    10    4   49 1
    11    5    6 ar
    12    5   50 1
    13    6    7 ar
    14    6   51 1
    15    7    8 1
    16    8    9 1
    17    8   52 1
    18    8   53 1
    19    9   10 1
    20    9   31 am
    21   10   11 1
    22   10   12 1
    23   10   19 1
    24   12   13 1
    25   12   18 1
    26   12   14 1
    27   14   15 1
    28   14   54 1
    29   14   55 1
    30   15   16 1
    31   15   56 1
    32   15   57 1
    33   16   17 2
    34   16   58 1
    35   17   18 1
    36   17   59 1
    37   18   60 1
    38   18   61 1
    39   19   20 2
    40   19   21 am
    41   21   22 1
    42   21   62 1
    43   22   27 ar
    44   22   23 ar
    45   23   24 ar
    46   23   63 1
    47   24   25 ar
    48   24   64 1
    49   25   26 ar
    50   25   28 1
    51   26   27 ar
    52   26   65 1
    53   27   66 1
    54   28   29 1
    55   28   30 1
    56   29   67 1
    57   29   68 1
    58   29   69 1
    59   30   70 1
    60   30   71 1
    61   30   72 1
    62   31   32 2
    63   31   33 1
    64   33   34 1
    65   33   73 1
    66   33   74 1
    67   34   43 am
    68   34   35 1
    69   35   40 ar
    70   35   36 ar
    71   36   37 ar
    72   36   75 1
    73   37   38 ar
    74   37   76 1
    75   38   39 ar
    76   38   77 1
    77   39   40 ar
    78   39   78 1
    79   40   41 1
    80   41   42 2
    81   41   43 1
    82   43   44 2
@<TRIPOS>MOLECULE
ZINC16569721
   71    75     0     0     0
SMALL
USER_CHARGES
1-isopropyl-3-(2-methoxyphenyl)-1-[2-[(4S)-4-(4-methoxyphenyl)-4H-pyrrolo[2,1-c]quinoxalin-5-yl]-2-oxo-ethyl]urea
@<TRIPOS>ATOM
      1 C1          0.0118   -2.0448    3.1172 C.3       1 <0>        -0.1642
      2 C2         -0.6541   -2.0360    1.7397 C.3       1 <0>         0.1482
      3 C3          0.1137   -2.9641    0.7962 C.3       1 <0>        -0.1609
      4 N1         -2.0378   -2.5011    1.8631 N.am      1 <0>        -0.5996
      5 C4         -2.3132   -3.8802    2.2736 C.3       1 <0>         0.0896
      6 C5         -2.3918   -4.7613    1.0536 C.2       1 <0>         0.4980
      7 O1         -2.3618   -4.2676   -0.0540 O.2       1 <0>        -0.4861
      8 N2         -2.4954   -6.0978    1.1931 N.am      1 <0>        -0.5514
      9 C6         -2.4546   -6.9246    0.0622 C.ar      1 <0>         0.1355
     10 C7         -2.9026   -6.4620   -1.1652 C.ar      1 <0>        -0.1038
     11 C8         -2.8473   -7.2846   -2.2745 C.ar      1 <0>        -0.1084
     12 C9         -2.3462   -8.5695   -2.1694 C.ar      1 <0>        -0.1068
     13 C10        -1.8997   -9.0430   -0.9482 C.ar      1 <0>        -0.1176
     14 C11        -1.9567   -8.2279    0.1652 C.ar      1 <0>         0.1104
     15 N3         -1.5387   -8.6704    1.4287 N.pl3     1 <0>        -0.3892
     16 C12        -0.8199   -9.7643    1.7773 C.2       1 <0>         0.0115
     17 C13        -0.6646   -9.7559    3.1204 C.2       1 <0>        -0.1938
     18 C14        -1.3188   -8.6071    3.6177 C.2       1 <0>        -0.1508
     19 C15        -1.8454   -7.9630    2.5709 C.2       1 <0>        -0.0117
     20 C16        -2.6454   -6.6875    2.5338 C.3       1 <0>         0.2574
     21 H1         -2.2702   -5.9941    3.2865 H         1 <0>         0.1205
     22 C17        -4.0972   -6.9931    2.7980 C.ar      1 <0>        -0.1471
     23 C18        -4.8890   -7.5076    1.7880 C.ar      1 <0>        -0.0524
     24 C19        -6.2188   -7.7939    2.0292 C.ar      1 <0>        -0.2044
     25 C20        -6.7624   -7.5542    3.2828 C.ar      1 <0>         0.1395
     26 C21        -5.9672   -7.0326    4.2929 C.ar      1 <0>        -0.1472
     27 C22        -4.6366   -6.7533    4.0483 C.ar      1 <0>        -0.0609
     28 O2         -8.0716   -7.8302    3.5211 O.3       1 <0>        -0.3146
     29 C23        -8.8300   -8.3654    2.4347 C.3       1 <0>         0.0259
     30 C24        -3.0574   -1.6602    1.5990 C.2       1 <0>         0.7178
     31 O3         -2.8302   -0.5431    1.1760 O.2       1 <0>        -0.5616
     32 N4         -4.3289   -2.0576    1.8039 N.am      1 <0>        -0.6713
     33 C25        -5.3911   -1.2009    1.4838 C.ar      1 <0>         0.1397
     34 C26        -5.1745    0.1649    1.3757 C.ar      1 <0>        -0.1067
     35 C27        -6.2233    1.0077    1.0595 C.ar      1 <0>        -0.1330
     36 C28        -7.4896    0.4929    0.8508 C.ar      1 <0>        -0.1026
     37 C29        -7.7128   -0.8674    0.9564 C.ar      1 <0>        -0.1872
     38 C30        -6.6668   -1.7188    1.2730 C.ar      1 <0>         0.0923
     39 O4         -6.8838   -3.0576    1.3722 O.3       1 <0>        -0.3207
     40 C31        -8.2172   -3.5174    1.1430 C.3       1 <0>         0.0329
     41 H2          0.0035   -3.0583    3.5182 H         1 <0>         0.0555
     42 H3          1.0413   -1.6988    3.0253 H         1 <0>         0.0739
     43 H4         -0.5352   -1.3836    3.7893 H         1 <0>         0.0628
     44 H5         -0.6458   -1.0225    1.3386 H         1 <0>         0.1108
     45 H6         -0.3607   -2.9578   -0.1852 H         1 <0>         0.0717
     46 H7          1.1432   -2.6181    0.7043 H         1 <0>         0.0696
     47 H8          0.1054   -3.9776    1.1973 H         1 <0>         0.0471
     48 H9         -1.5131   -4.2320    2.9249 H         1 <0>         0.1196
     49 H10        -3.2612   -3.9171    2.8102 H         1 <0>         0.1073
     50 H11        -3.2950   -5.4597   -1.2546 H         1 <0>         0.1557
     51 H12        -3.1972   -6.9217   -3.2296 H         1 <0>         0.1332
     52 H13        -2.3037   -9.2045   -3.0419 H         1 <0>         0.1348
     53 H14        -1.5079  -10.0461   -0.8661 H         1 <0>         0.1347
     54 H15        -0.4370  -10.5132    1.0998 H         1 <0>         0.1675
     55 H16        -0.1360  -10.4932    3.7064 H         1 <0>         0.1465
     56 H17        -1.3821   -8.3048    4.6526 H         1 <0>         0.1454
     57 H18        -4.4664   -7.6900    0.8110 H         1 <0>         0.1200
     58 H19        -6.8358   -8.1999    1.2412 H         1 <0>         0.1283
     59 H20        -6.3880   -6.8454    5.2698 H         1 <0>         0.1358
     60 H21        -4.0172   -6.3469    4.8342 H         1 <0>         0.1346
     61 H22        -8.8260   -7.6578    1.6055 H         1 <0>         0.0556
     62 H23        -8.3863   -9.3069    2.1109 H         1 <0>         0.0566
     63 H24        -9.8560   -8.5396    2.7588 H         1 <0>         0.1029
     64 H25        -4.5089   -2.9364    2.1729 H         1 <0>         0.4060
     65 H26        -4.1865    0.5697    1.5382 H         1 <0>         0.1693
     66 H27        -6.0535    2.0709    0.9756 H         1 <0>         0.1275
     67 H28        -8.3063    1.1552    0.6043 H         1 <0>         0.1248
     68 H29        -8.7030   -1.2663    0.7925 H         1 <0>         0.1301
     69 H30        -8.8897   -3.0572    1.8670 H         1 <0>         0.0564
     70 H31        -8.5274   -3.2443    0.1344 H         1 <0>         0.0553
     71 H32        -8.2517   -4.6013    1.2529 H         1 <0>         0.0955
@<TRIPOS>BOND
     1    1    2 1
     2    1   41 1
     3    1   42 1
     4    1   43 1
     5    2    3 1
     6    2    4 1
     7    2   44 1
     8    3   45 1
     9    3   46 1
    10    3   47 1
    11    4    5 1
    12    4   30 am
    13    5    6 1
    14    5   48 1
    15    5   49 1
    16    6    7 2
    17    6    8 am
    18    8   20 1
    19    8    9 1
    20    9   14 ar
    21    9   10 ar
    22   10   11 ar
    23   10   50 1
    24   11   12 ar
    25   11   51 1
    26   12   13 ar
    27   12   52 1
    28   13   14 ar
    29   13   53 1
    30   14   15 1
    31   15   19 1
    32   15   16 1
    33   16   17 2
    34   16   54 1
    35   17   18 1
    36   17   55 1
    37   18   19 2
    38   18   56 1
    39   19   20 1
    40   20   21 1
    41   20   22 1
    42   22   27 ar
    43   22   23 ar
    44   23   24 ar
    45   23   57 1
    46   24   25 ar
    47   24   58 1
    48   25   26 ar
    49   25   28 1
    50   26   27 ar
    51   26   59 1
    52   27   60 1
    53   28   29 1
    54   29   61 1
    55   29   62 1
    56   29   63 1
    57   30   31 2
    58   30   32 am
    59   32   33 1
    60   32   64 1
    61   33   38 ar
    62   33   34 ar
    63   34   35 ar
    64   34   65 1
    65   35   36 ar
    66   35   66 1
    67   36   37 ar
    68   36   67 1
    69   37   38 ar
    70   37   68 1
    71   38   39 1
    72   39   40 1
    73   40   69 1
    74   40   70 1
    75   40   71 1
@<TRIPOS>MOLECULE
ZINC33726915
   60    65     0     0     0
SMALL
USER_CHARGES
(5E)-3-(1,3-benzodioxol-5-ylmethyl)-5-[[2-(cyclopentylamino)-7-methyl-4-oxo-pyrido[1,2-a]pyrimidin-3-yl]methylene]-2-thioxo-thiazolidin-4-one
@<TRIPOS>ATOM
      1 C1         -5.6023    7.8775   -4.4206 C.3       1 <0>        -0.1100
      2 C2         -4.5008    8.8224   -4.0145 C.2       1 <0>        -0.1423
      3 C3         -4.1258    9.8683   -4.8687 C.2       1 <0>        -0.0120
      4 C4         -3.1286   10.7187   -4.4930 C.2       1 <0>        -0.1481
      5 C5         -2.4895   10.5339   -3.2538 C.2       1 <0>         0.4408
      6 N1         -1.5148   11.3700   -2.8954 N.2       1 <0>        -0.5832
      7 C6         -0.8791   11.2423   -1.7398 C.2       1 <0>         0.5185
      8 C7         -1.2376   10.1952   -0.8585 C.2       1 <0>        -0.4035
      9 C8         -2.2699    9.3104   -1.2516 C.2       1 <0>         0.5556
     10 O1         -2.6083    8.3913   -0.5257 O.2       1 <0>        -0.5220
     11 N2         -2.8771    9.5042   -2.4422 N.am      1 <0>        -0.4308
     12 C9         -3.8757    8.6596   -2.8268 C.2       1 <0>         0.1099
     13 C10        -0.5769   10.0331    0.3816 C.2       1 <0>         0.1593
     14 C11        -1.2585   10.2262    1.5483 C.2       1 <0>        -0.2465
     15 C12        -2.5899   10.6877    1.7538 C.2       1 <0>         0.5471
     16 O2         -3.3048   10.9784    0.8109 O.2       1 <0>        -0.4571
     17 N3         -3.0281   10.7922    2.9963 N.am      1 <0>        -0.5196
     18 C13        -2.2330   10.4750    4.0425 C.2       1 <0>         0.2878
     19 S1         -2.5849   10.5401    5.7167 S.2       1 <0>        -0.3462
     20 S2         -0.7225    9.9691    3.2341 S.3       1 <0>         0.0560
     21 C14        -4.3927   11.2643    3.2435 C.3       1 <0>         0.1317
     22 C15        -5.3336   10.0875    3.2741 C.ar      1 <0>        -0.1127
     23 C16        -5.9403    9.6590    2.1081 C.ar      1 <0>        -0.0767
     24 C17        -6.8037    8.5796    2.1310 C.ar      1 <0>        -0.1046
     25 C18        -7.0638    7.9250    3.3240 C.ar      1 <0>         0.0466
     26 C19        -6.4530    8.3570    4.4986 C.ar      1 <0>         0.0286
     27 C20        -5.5884    9.4391    4.4681 C.ar      1 <0>        -0.0747
     28 O3         -6.8645    7.5557    5.5270 O.3       1 <0>        -0.3061
     29 C21        -7.4159    6.3827    4.8999 C.3       1 <0>         0.2075
     30 O4         -7.8603    6.8552    3.6144 O.3       1 <0>        -0.3034
     31 N4          0.1237   12.1234   -1.3986 N.pl3     1 <0>        -0.7014
     32 C22         0.4908   13.2058   -2.3150 C.3       1 <0>         0.1422
     33 C23         1.5465   12.7087   -3.3241 C.3       1 <0>        -0.1350
     34 C24         2.4878   13.9243   -3.5178 C.3       1 <0>        -0.1250
     35 C25         2.5667   14.5269   -2.0930 C.3       1 <0>        -0.1198
     36 C26         1.1389   14.3616   -1.5328 C.3       1 <0>        -0.1282
     37 H1         -5.9870    8.1663   -5.4098 H         1 <0>         0.0788
     38 H2         -6.4165    7.9247   -3.6825 H         1 <0>         0.0783
     39 H3         -5.2074    6.8518   -4.4659 H         1 <0>         0.0783
     40 H4         -4.6239   10.0002   -5.8179 H         1 <0>         0.1557
     41 H5         -2.8309   11.5283   -5.1429 H         1 <0>         0.1686
     42 H6         -4.1711    7.8509   -2.1748 H         1 <0>         0.1809
     43 H7          0.4862    9.7514    0.4058 H         1 <0>         0.1474
     44 H8         -4.4299   11.7887    4.2097 H         1 <0>         0.1230
     45 H9         -4.6934   11.9534    2.4406 H         1 <0>         0.1165
     46 H10        -5.7393   10.1685    1.1773 H         1 <0>         0.1393
     47 H11        -7.2757    8.2465    1.2185 H         1 <0>         0.1372
     48 H12        -5.1136    9.7765    5.3776 H         1 <0>         0.1516
     49 H13        -6.6354    5.6125    4.8124 H         1 <0>         0.0864
     50 H14        -8.2455    5.9963    5.5102 H         1 <0>         0.1358
     51 H15         0.6487   12.0141   -0.4381 H         1 <0>         0.4300
     52 H16        -0.4502   13.5041   -2.8004 H         1 <0>         0.0990
     53 H17         2.0747   11.8400   -2.9041 H         1 <0>         0.0691
     54 H18         1.0495   12.4176   -4.2613 H         1 <0>         0.0726
     55 H19         3.4642   13.5769   -3.8866 H         1 <0>         0.0690
     56 H20         2.0456   14.6178   -4.2483 H         1 <0>         0.0702
     57 H21         3.3093   13.9720   -1.5008 H         1 <0>         0.0687
     58 H22         2.8649   15.5837   -2.1578 H         1 <0>         0.0705
     59 H23         0.5509   15.2794   -1.6806 H         1 <0>         0.0782
     60 H24         1.1643   14.1109   -0.4621 H         1 <0>         0.0720
@<TRIPOS>BOND
     1    1    2 1
     2    1   37 1
     3    1   38 1
     4    1   39 1
     5    2   12 2
     6    2    3 1
     7    3    4 2
     8    3   40 1
     9    4    5 1
    10    4   41 1
    11    5   11 1
    12    5    6 2
    13    6    7 1
    14    7    8 2
    15    7   31 1
    16    8    9 1
    17    8   13 1
    18    9   10 2
    19    9   11 am
    20   11   12 1
    21   12   42 1
    22   13   14 2
    23   13   43 1
    24   14   20 1
    25   14   15 1
    26   15   16 2
    27   15   17 am
    28   17   18 1
    29   17   21 1
    30   18   19 2
    31   18   20 1
    32   21   22 1
    33   21   44 1
    34   21   45 1
    35   22   27 ar
    36   22   23 ar
    37   23   24 ar
    38   23   46 1
    39   24   25 ar
    40   24   47 1
    41   25   30 1
    42   25   26 ar
    43   26   27 ar
    44   26   28 1
    45   27   48 1
    46   28   29 1
    47   29   30 1
    48   29   49 1
    49   29   50 1
    50   31   32 1
    51   31   51 1
    52   32   36 1
    53   32   33 1
    54   32   52 1
    55   33   34 1
    56   33   53 1
    57   33   54 1
    58   34   35 1
    59   34   55 1
    60   34   56 1
    61   35   36 1
    62   35   57 1
    63   35   58 1
    64   36   59 1
    65   36   60 1
@<TRIPOS>MOLECULE
ZINC39965417
   65    69     0     0     0
SMALL
USER_CHARGES

@<TRIPOS>ATOM
      1 C1         -0.6689    1.8362    0.9253 C.3       1 <0>        -0.1577
      2 C2         -0.5951    0.3172    0.7577 C.3       1 <0>        -0.1164
      3 C3          0.2773   -0.2763    1.8657 C.3       1 <0>        -0.0574
      4 C4          1.6855    0.3156    1.7782 C.3       1 <0>        -0.1476
      5 C5         -0.3323    0.0574    3.2287 C.3       1 <0>        -0.1508
      6 C6          0.3512   -1.7953    1.6981 C.3       1 <0>        -0.0704
      7 H1          0.7854   -2.0348    0.7274 H         1 <0>         0.0774
      8 C7          1.2192   -2.3923    2.8095 C.3       1 <0>        -0.1178
      9 C8          1.5025   -3.8668    2.5140 C.3       1 <0>        -0.0608
     10 C9          0.1816   -4.5727    2.2454 C.2       1 <0>        -0.0564
     11 C10        -0.9338   -3.8786    1.9294 C.2       1 <0>        -0.2169
     12 S1         -2.1835   -5.1119    1.7155 S.3       1 <0>         0.3142
     13 C11        -1.2796   -6.4924    2.0275 C.2       1 <0>         0.0497
     14 C12        -0.0095   -6.0110    2.2988 C.2       1 <0>        -0.1307
     15 C13         1.0706   -6.8954    2.6183 C.1       1 <0>         0.2667
     16 N1          1.9273   -7.5969    2.8718 N.1       1 <0>        -0.4224
     17 N2         -1.7073   -7.8128    2.0164 N.am      1 <0>        -0.6130
     18 C14        -2.9916   -8.1028    1.7284 C.2       1 <0>         0.5347
     19 O1         -3.7736   -7.2099    1.4789 O.2       1 <0>        -0.4796
     20 C15        -3.4560   -9.5364    1.7164 C.3       1 <0>        -0.1465
     21 S2         -5.2199   -9.5972    1.2975 S.3       1 <0>         0.0925
     22 C16        -5.6054  -11.3163    1.3242 C.2       1 <0>         0.1441
     23 N3         -4.7749  -12.2971    1.5974 N.2       1 <0>        -0.2881
     24 N4         -5.3858  -13.4255    1.5270 N.2       1 <0>        -0.2608
     25 C17        -6.6440  -13.2347    1.2047 C.2       1 <0>         0.2334
     26 N5         -6.8250  -11.8774    1.0706 N.pl3     1 <0>        -0.4552
     27 C18        -8.0659  -11.1796    0.7249 C.3       1 <0>         0.0600
     28 C19        -7.6735  -14.2803    1.0257 C.ar      1 <0>        -0.0115
     29 C20        -7.4739  -15.5564    1.5550 C.ar      1 <0>        -0.0582
     30 C21        -8.4358  -16.5305    1.3875 C.ar      1 <0>        -0.0961
     31 C22        -9.6032  -16.2470    0.6938 C.ar      1 <0>         0.0516
     32 C23        -9.8084  -14.9744    0.1626 C.ar      1 <0>         0.0365
     33 C24        -8.8499  -13.9923    0.3321 C.ar      1 <0>        -0.0956
     34 O2        -11.0205  -14.9545   -0.4656 O.3       1 <0>        -0.3054
     35 C25       -11.3715  -16.3362   -0.6673 C.3       1 <0>         0.2125
     36 O3        -10.6873  -17.0222    0.3976 O.3       1 <0>        -0.3037
     37 C26        -1.0608   -2.3923    1.7914 C.3       1 <0>        -0.0347
     38 H2          0.3343    2.2579    0.8629 H         1 <0>         0.0563
     39 H3         -1.2904    2.2590    0.1359 H         1 <0>         0.0514
     40 H4         -1.1033    2.0739    1.8963 H         1 <0>         0.0571
     41 H5         -1.5983   -0.1044    0.8200 H         1 <0>         0.0645
     42 H6         -0.1607    0.0795   -0.2134 H         1 <0>         0.0618
     43 H7          1.6329    1.3977    1.8976 H         1 <0>         0.0590
     44 H8          2.3070   -0.1073    2.5675 H         1 <0>         0.0582
     45 H9          2.1199    0.0778    0.8071 H         1 <0>         0.0546
     46 H10        -1.3356   -0.3642    3.2910 H         1 <0>         0.0586
     47 H11         0.2892   -0.3654    4.0180 H         1 <0>         0.0575
     48 H12        -0.3850    1.1396    3.3481 H         1 <0>         0.0583
     49 H13         2.1612   -1.8467    2.8657 H         1 <0>         0.0765
     50 H14         0.6961   -2.3079    3.7621 H         1 <0>         0.0705
     51 H15         2.1450   -3.9471    1.6372 H         1 <0>         0.0803
     52 H16         1.9934   -4.3242    3.3731 H         1 <0>         0.0749
     53 H17        -1.0819   -8.5269    2.2160 H         1 <0>         0.4251
     54 H18        -2.8868  -10.0965    0.9745 H         1 <0>         0.1376
     55 H19        -3.3011   -9.9768    2.7014 H         1 <0>         0.1376
     56 H20        -8.1853  -11.1657   -0.3584 H         1 <0>         0.0933
     57 H21        -8.9119  -11.6973    1.1771 H         1 <0>         0.1021
     58 H22        -8.0238  -10.1567    1.0990 H         1 <0>         0.1013
     59 H23        -6.5662  -15.7811    2.0954 H         1 <0>         0.1542
     60 H24        -8.2795  -17.5174    1.7975 H         1 <0>         0.1478
     61 H25        -9.0097  -13.0048   -0.0750 H         1 <0>         0.1414
     62 H26       -12.4493  -16.4740   -0.5813 H         1 <0>         0.1368
     63 H27       -11.0162  -16.6839   -1.6373 H         1 <0>         0.0894
     64 H28        -1.5745   -1.9864    2.6629 H         1 <0>         0.0899
     65 H29        -1.6219   -2.1518    0.8885 H         1 <0>         0.0842
@<TRIPOS>BOND
     1    1    2 1
     2    1   38 1
     3    1   39 1
     4    1   40 1
     5    2    3 1
     6    2   41 1
     7    2   42 1
     8    3    4 1
     9    3    5 1
    10    3    6 1
    11    4   43 1
    12    4   44 1
    13    4   45 1
    14    5   46 1
    15    5   47 1
    16    5   48 1
    17    6    7 1
    18    6   37 1
    19    6    8 1
    20    8    9 1
    21    8   49 1
    22    8   50 1
    23    9   10 1
    24    9   51 1
    25    9   52 1
    26   10   14 1
    27   10   11 2
    28   11   12 1
    29   11   37 1
    30   12   13 1
    31   13   14 2
    32   13   17 1
    33   14   15 1
    34   15   16 3
    35   17   18 am
    36   17   53 1
    37   18   19 2
    38   18   20 1
    39   20   21 1
    40   20   54 1
    41   20   55 1
    42   21   22 1
    43   22   26 1
    44   22   23 2
    45   23   24 1
    46   24   25 2
    47   25   26 1
    48   25   28 1
    49   26   27 1
    50   27   56 1
    51   27   57 1
    52   27   58 1
    53   28   33 ar
    54   28   29 ar
    55   29   30 ar
    56   29   59 1
    57   30   31 ar
    58   30   60 1
    59   31   36 1
    60   31   32 ar
    61   32   33 ar
    62   32   34 1
    63   33   61 1
    64   34   35 1
    65   35   36 1
    66   35   62 1
    67   35   63 1
    68   37   64 1
    69   37   65 1
@<TRIPOS>MOLECULE
ZINC01845544
   67    73     0     0     0
SMALL
USER_CHARGES

@<TRIPOS>ATOM
      1 C1         -0.6647    1.1685    1.3020 C.3       1 <0>        -0.1092
      2 C2         -0.4947   -0.3047    1.0340 C.ar      1 <0>        -0.1278
      3 C3         -0.5193   -0.7717   -0.2691 C.ar      1 <0>        -0.0734
      4 C4         -0.3717   -2.1227   -0.5325 C.ar      1 <0>        -0.1655
      5 C5         -0.1976   -3.0036    0.5119 C.ar      1 <0>         0.2374
      6 C6         -0.1576   -2.5344    1.8414 C.ar      1 <0>        -0.1147
      7 C7         -0.3102   -1.1752    2.0904 C.ar      1 <0>        -0.0653
      8 C8          0.0777   -3.5050    2.9275 C.2       1 <0>        -0.0690
      9 C9         -0.0854   -4.8099    2.7302 C.2       1 <0>        -0.1898
     10 C10        -0.5216   -5.3308    1.3877 C.3       1 <0>         0.2133
     11 H1         -1.6079   -5.4156    1.3579 H         1 <0>         0.0862
     12 N1         -0.0625   -4.3767    0.3534 N.pl3     1 <0>        -0.6056
     13 C11         0.5726   -5.1360   -0.7268 C.3       1 <0>         0.1286
     14 H2          1.3460   -4.5398   -1.2112 H         1 <0>         0.1164
     15 C12         1.2004   -6.3569    0.0040 C.3       1 <0>        -0.1118
     16 H3          1.3351   -7.1944   -0.6805 H         1 <0>         0.1198
     17 C13         0.1144   -6.6820    1.0675 C.3       1 <0>        -0.0428
     18 C14         0.6911   -7.3433    2.2728 C.ar      1 <0>        -0.1447
     19 C15         1.6534   -6.9402    3.1736 C.ar      1 <0>        -0.0548
     20 C16         1.9609   -7.8196    4.2058 C.ar      1 <0>        -0.1429
     21 C17         1.3296   -9.0415    4.3206 C.ar      1 <0>        -0.0725
     22 C18         0.3615   -9.4546    3.4192 C.ar      1 <0>        -0.1356
     23 C19         0.0423   -8.5817    2.3785 C.ar      1 <0>         0.1558
     24 N2         -0.8724   -8.7355    1.3510 N.am      1 <0>        -0.6587
     25 C20        -0.8962   -7.6623    0.5295 C.2       1 <0>         0.5330
     26 O1         -1.5957   -7.5161   -0.4505 O.2       1 <0>        -0.4524
     27 C21         2.5057   -5.9821    0.6571 C.2       1 <0>         0.4116
     28 O2          2.6906   -4.8444    1.0336 O.2       1 <0>        -0.3984
     29 C22         3.5561   -6.9969    0.8380 C.ar      1 <0>        -0.1564
     30 C23         3.3897   -8.2823    0.3122 C.ar      1 <0>        -0.0258
     31 C24         4.3782   -9.2275    0.4859 C.ar      1 <0>        -0.1193
     32 C25         5.5331   -8.9071    1.1786 C.ar      1 <0>        -0.0238
     33 C26         5.7052   -7.6377    1.7019 C.ar      1 <0>        -0.0537
     34 C27         4.7281   -6.6794    1.5316 C.ar      1 <0>         0.0016
     35 N3          6.9436   -7.3057    2.4413 N.pl3     1 <0>         0.0310
     36 O3          7.8032   -8.1432    2.5875 O.2       1 <0>        -0.1496
     37 O4          7.0955   -6.1971    2.8991 O.3       1 <0>        -0.1490
     38 C28        -0.4548   -5.5870   -1.7328 C.2       1 <0>         0.3740
     39 O5         -1.6361   -5.5054   -1.4713 O.2       1 <0>        -0.3809
     40 C29        -0.0247   -6.1262   -3.0320 C.ar      1 <0>        -0.1541
     41 C30         1.3304   -6.1245   -3.3798 C.ar      1 <0>        -0.0755
     42 C31         1.7261   -6.6318   -4.5986 C.ar      1 <0>        -0.1192
     43 C32         0.7854   -7.1423   -5.4787 C.ar      1 <0>        -0.0082
     44 C33        -0.5584   -7.1473   -5.1409 C.ar      1 <0>        -0.1187
     45 C34        -0.9681   -6.6485   -3.9232 C.ar      1 <0>        -0.0410
     46 Cl1         1.2930   -7.7782   -7.0122 Cl        1 <0>        -0.0578
     47 H4          0.3113    1.6538    1.2963 H         1 <0>         0.0668
     48 H5         -1.2938    1.6083    0.5282 H         1 <0>         0.0637
     49 H6         -1.1345    1.3088    2.2755 H         1 <0>         0.0635
     50 H7         -0.6548   -0.0776   -1.0854 H         1 <0>         0.1238
     51 H8         -0.3933   -2.4837   -1.5502 H         1 <0>         0.1180
     52 H9         -0.2887   -0.8027    3.1040 H         1 <0>         0.1250
     53 H10         0.3872   -3.1496    3.8993 H         1 <0>         0.1232
     54 H11         0.0971   -5.5012    3.5397 H         1 <0>         0.1314
     55 H12         2.1467   -5.9839    3.0816 H         1 <0>         0.1378
     56 H13         2.7096   -7.5409    4.9325 H         1 <0>         0.1279
     57 H14         1.5978   -9.6950    5.1375 H         1 <0>         0.1311
     58 H15        -0.1261  -10.4131    3.5183 H         1 <0>         0.1387
     59 H16        -1.4303   -9.5204    1.2344 H         1 <0>         0.4204
     60 H17         2.4891   -8.5338   -0.2282 H         1 <0>         0.1440
     61 H18         4.2511  -10.2205    0.0807 H         1 <0>         0.1563
     62 H19         6.3037   -9.6520    1.3117 H         1 <0>         0.1608
     63 H20         4.8657   -5.6878    1.9367 H         1 <0>         0.1648
     64 H21         2.0645   -5.7263   -2.6951 H         1 <0>         0.1337
     65 H22         2.7718   -6.6311   -4.8685 H         1 <0>         0.1413
     66 H23        -1.2861   -7.5464   -5.8320 H         1 <0>         0.1418
     67 H24        -2.0154   -6.6568   -3.6595 H         1 <0>         0.1452
@<TRIPOS>BOND
     1    1    2 1
     2    1   47 1
     3    1   48 1
     4    1   49 1
     5    2    7 ar
     6    2    3 ar
     7    3    4 ar
     8    3   50 1
     9    4    5 ar
    10    4   51 1
    11    5   12 1
    12    5    6 ar
    13    6    7 ar
    14    6    8 1
    15    7   52 1
    16    8    9 2
    17    8   53 1
    18    9   10 1
    19    9   54 1
    20   10   11 1
    21   10   17 1
    22   10   12 1
    23   12   13 1
    24   13   14 1
    25   13   15 1
    26   13   38 1
    27   15   16 1
    28   15   17 1
    29   15   27 1
    30   17   25 1
    31   17   18 1
    32   18   23 ar
    33   18   19 ar
    34   19   20 ar
    35   19   55 1
    36   20   21 ar
    37   20   56 1
    38   21   22 ar
    39   21   57 1
    40   22   23 ar
    41   22   58 1
    42   23   24 1
    43   24   25 am
    44   24   59 1
    45   25   26 2
    46   27   28 2
    47   27   29 1
    48   29   34 ar
    49   29   30 ar
    50   30   31 ar
    51   30   60 1
    52   31   32 ar
    53   31   61 1
    54   32   33 ar
    55   32   62 1
    56   33   34 ar
    57   33   35 1
    58   34   63 1
    59   35   36 2
    60   35   37 1
    61   38   39 2
    62   38   40 1
    63   40   45 ar
    64   40   41 ar
    65   41   42 ar
    66   41   64 1
    67   42   43 ar
    68   42   65 1
    69   43   44 ar
    70   43   46 1
    71   44   45 ar
    72   44   66 1
    73   45   67 1
@<TRIPOS>MOLECULE
ZINC03340771
   65    69     0     0     0
SMALL
USER_CHARGES
(oxoBLAHyl)methyl 3-(4-azepan-1-ylsulfonylphenyl)prop-2-enoate
@<TRIPOS>ATOM
      1 C1          1.9976   10.2224    0.0340 C.ar      1 <0>        -0.1187
      2 C2          1.2529   11.3828    0.0538 C.ar      1 <0>        -0.0214
      3 C3          1.8841   12.6145    0.0544 C.ar      1 <0>        -0.6664
      4 C4          3.2660   12.6921    0.0408 C.ar      1 <0>        -0.0232
      5 C5          4.0247   11.5409    0.0267 C.ar      1 <0>        -0.1109
      6 C6          3.3943   10.2924    0.0261 C.ar      1 <0>        -0.0258
      7 C7          4.1967    9.0587    0.0111 C.2       1 <0>        -0.0128
      8 C8          3.5850    7.8562    0.0105 C.2       1 <0>        -0.1752
      9 C9          4.3822    6.6304   -0.0044 C.2       1 <0>         0.5024
     10 O1          5.5967    6.6949   -0.0163 O.2       1 <0>        -0.5038
     11 O2          3.7706    5.4279   -0.0050 O.3       1 <0>        -0.3162
     12 C10         4.6113    4.2724   -0.0199 C.3       1 <0>         0.1175
     13 C11         3.7579    3.0303   -0.0183 C.2       1 <0>         0.3879
     14 N1          4.3732    1.8234   -0.0312 N.am      1 <0>        -0.6346
     15 H1          5.3728    1.7982   -0.0419 H         1 <0>         0.4258
     16 C12         3.6980    0.6496   -0.0303 C.2       1 <0>         0.5673
     17 O3          4.2691   -0.4272   -0.0411 O.2       1 <0>        -0.5070
     18 C13         2.2663    0.7548   -0.0154 C.2       1 <0>        -0.2471
     19 C14         1.3134   -0.3405   -0.0118 C.2       1 <0>        -0.0526
     20 C15         0.0021   -0.0041    0.0020 C.2       1 <0>        -0.1697
     21 S1         -0.0220    1.7710    0.0118 S.3       1 <0>         0.1637
     22 C16         1.7193    2.0570   -0.0033 C.2       1 <0>         0.0819
     23 N2          2.4503    3.1675   -0.0039 N.2       1 <0>        -0.4343
     24 C17        -1.1726   -0.9327    0.0074 C.3       1 <0>        -0.0385
     25 C18        -0.6849   -2.3364   -0.3787 C.3       1 <0>        -0.1151
     26 C19         0.5626   -2.6656    0.4465 C.3       1 <0>        -0.1231
     27 C20         1.7371   -1.8069   -0.0230 C.3       1 <0>        -0.0596
     28 S2          0.9235   14.0915    0.0718 S.o2      1 <0>         2.6822
     29 O4         -0.3362   13.7501    0.6336 O.2       1 <0>        -0.9525
     30 O5          1.7516   15.1081    0.6196 O.2       1 <0>        -0.9485
     31 N3          0.6407   14.5102   -1.5052 N.pl3     1 <0>        -0.9866
     32 C21         1.5828   15.3820   -2.1705 C.3       1 <0>         0.1237
     33 C22         1.1803   16.8555   -1.9517 C.3       1 <0>        -0.1422
     34 C23        -0.0315   17.1732   -2.7225 C.3       1 <0>        -0.1196
     35 C24        -1.2658   16.3774   -2.3094 C.3       1 <0>        -0.1192
     36 C25        -1.2695   15.0510   -3.0286 C.3       1 <0>        -0.1255
     37 C26        -0.5661   13.9828   -2.1718 C.3       1 <0>         0.1100
     38 H2          1.5035    9.2620    0.0291 H         1 <0>         0.1422
     39 H3          0.1742   11.3304    0.0648 H         1 <0>         0.1455
     40 H4          3.7512   13.6570    0.0410 H         1 <0>         0.1455
     41 H5          5.1028   11.6030    0.0158 H         1 <0>         0.1416
     42 H6          5.2751    9.1160    0.0005 H         1 <0>         0.1462
     43 H7          2.5066    7.7989    0.0210 H         1 <0>         0.1497
     44 H8          5.2495    4.2760    0.8637 H         1 <0>         0.1118
     45 H9          5.2315    4.2860   -0.9161 H         1 <0>         0.1117
     46 H10        -1.6139   -0.9595    1.0037 H         1 <0>         0.0867
     47 H11        -1.9149   -0.5886   -0.7128 H         1 <0>         0.0849
     48 H12        -1.4664   -3.0662   -0.1673 H         1 <0>         0.0768
     49 H13        -0.4377   -2.3586   -1.4401 H         1 <0>         0.0695
     50 H14         0.3643   -2.4637    1.4991 H         1 <0>         0.0664
     51 H15         0.8125   -3.7191    0.3206 H         1 <0>         0.0724
     52 H16         2.5836   -1.9474    0.6492 H         1 <0>         0.0859
     53 H17         2.0215   -2.0987   -1.0339 H         1 <0>         0.0794
     54 H18         2.5799   15.2184   -1.7616 H         1 <0>         0.0783
     55 H19         1.5885   15.1629   -3.2383 H         1 <0>         0.0839
     56 H20         1.9940   17.5049   -2.2747 H         1 <0>         0.0782
     57 H21         0.9879   17.0224   -0.8919 H         1 <0>         0.0715
     58 H22         0.1681   16.9799   -3.7765 H         1 <0>         0.0607
     59 H23        -0.2476   18.2347   -2.6014 H         1 <0>         0.0594
     60 H24        -2.1638   16.9363   -2.5726 H         1 <0>         0.0660
     61 H25        -1.2459   16.2073   -1.2329 H         1 <0>         0.0631
     62 H26        -0.7463   15.1539   -3.9793 H         1 <0>         0.0696
     63 H27        -2.2992   14.7453   -3.2140 H         1 <0>         0.0780
     64 H28        -0.2807   13.1476   -2.8114 H         1 <0>         0.0675
     65 H29        -1.2619   13.6252   -1.4128 H         1 <0>         0.0947
@<TRIPOS>BOND
     1    1    6 ar
     2    1    2 ar
     3    1   38 1
     4    2    3 ar
     5    2   39 1
     6    3    4 ar
     7    3   28 1
     8    4    5 ar
     9    4   40 1
    10    5    6 ar
    11    5   41 1
    12    6    7 1
    13    7    8 2
    14    7   42 1
    15    8    9 1
    16    8   43 1
    17    9   10 2
    18    9   11 1
    19   11   12 1
    20   12   13 1
    21   12   44 1
    22   12   45 1
    23   13   23 2
    24   13   14 1
    25   14   15 1
    26   14   16 am
    27   16   17 2
    28   16   18 1
    29   18   22 2
    30   18   19 1
    31   19   27 1
    32   19   20 2
    33   20   21 1
    34   20   24 1
    35   21   22 1
    36   22   23 1
    37   24   25 1
    38   24   46 1
    39   24   47 1
    40   25   26 1
    41   25   48 1
    42   25   49 1
    43   26   27 1
    44   26   50 1
    45   26   51 1
    46   27   52 1
    47   27   53 1
    48   28   29 2
    49   28   30 2
    50   28   31 1
    51   31   37 1
    52   31   32 1
    53   32   33 1
    54   32   54 1
    55   32   55 1
    56   33   34 1
    57   33   56 1
    58   33   57 1
    59   34   35 1
    60   34   58 1
    61   34   59 1
    62   35   36 1
    63   35   60 1
    64   35   61 1
    65   36   37 1
    66   36   62 1
    67   36   63 1
    68   37   64 1
    69   37   65 1
@<TRIPOS>MOLECULE
ZINC02131865
   76    81     0     0     0
SMALL
USER_CHARGES
(3-ethoxy-4-propoxy-phenyl)-methyl-[[(2R)-tetrahydrofuran-2-yl]methyl]BLAHdione
@<TRIPOS>ATOM
      1 C1         -1.7956   12.0872    1.3253 C.3       1 <0>        -0.1503
      2 C2         -0.7497   11.3849    2.1935 C.3       1 <0>        -0.1231
      3 C3         -0.6871    9.9030    1.8182 C.3       1 <0>         0.0578
      4 O1          0.2898    9.2471    2.6291 O.3       1 <0>        -0.3046
      5 C4          0.4715    7.9155    2.4211 C.ar      1 <0>         0.1040
      6 C5         -0.2740    7.2551    1.4577 C.ar      1 <0>        -0.1691
      7 C6         -0.0883    5.9014    1.2478 C.ar      1 <0>        -0.0976
      8 C7          0.8401    5.2034    1.9977 C.ar      1 <0>        -0.0668
      9 C8          1.5834    5.8551    2.9640 C.ar      1 <0>        -0.1652
     10 C9          1.4063    7.2131    3.1755 C.ar      1 <0>         0.1051
     11 O2          2.1404    7.8568    4.1222 O.3       1 <0>        -0.3041
     12 C10         3.0810    7.0722    4.8583 C.3       1 <0>         0.0532
     13 C11         3.8068    7.9620    5.8693 C.3       1 <0>        -0.1520
     14 C12         1.0377    3.7276    1.7654 C.3       1 <0>         0.0174
     15 H1          1.8011    3.3493    2.4453 H         1 <0>         0.0902
     16 C13         1.4791    3.4911    0.3161 C.3       1 <0>         0.1140
     17 N1          1.3288    2.0583    0.0004 N.am      1 <0>        -0.5921
     18 C14         2.4176    1.3311   -0.2649 C.2       1 <0>         0.5183
     19 O3          3.4728    1.9153   -0.3922 O.2       1 <0>        -0.5241
     20 C15         2.4193   -0.1557   -0.4139 C.3       1 <0>         0.0981
     21 N2          1.1030   -0.7304   -0.1907 N.am      1 <0>        -0.5969
     22 C16         0.0021   -0.0041    0.0020 C.2       1 <0>         0.5323
     23 O4         -1.0444   -0.5902    0.1816 O.2       1 <0>        -0.5100
     24 C17        -0.0182    1.4887    0.0102 C.3       1 <0>         0.2314
     25 C18        -0.7379    2.0014    1.2349 C.2       1 <0>         0.0648
     26 C19        -0.2598    3.0006    2.0096 C.2       1 <0>        -0.1378
     27 C20        -1.2208    3.2070    3.0737 C.ar      1 <0>        -0.0939
     28 C21        -1.2603    4.0911    4.1565 C.ar      1 <0>        -0.0571
     29 C22        -2.3518    4.0085    4.9854 C.ar      1 <0>        -0.1510
     30 C23        -3.3716    3.0956    4.7708 C.ar      1 <0>        -0.0944
     31 C24        -3.3573    2.2085    3.7085 C.ar      1 <0>        -0.1315
     32 C25        -2.2615    2.2695    2.8499 C.ar      1 <0>         0.1056
     33 N3         -1.9343    1.5581    1.7314 N.pl3     1 <0>        -0.5620
     34 H2         -2.4689    0.8462    1.3464 H         1 <0>         0.4248
     35 C26        -0.7716    1.9800   -1.2275 C.3       1 <0>        -0.1498
     36 C27         0.9793   -2.1902   -0.1771 C.3       1 <0>         0.1098
     37 C28         0.6923   -2.6908   -1.5941 C.3       1 <0>         0.0636
     38 H3          1.5082   -2.4182   -2.2635 H         1 <0>         0.0719
     39 C29         0.4871   -4.2266   -1.5906 C.3       1 <0>        -0.1486
     40 C30        -0.3839   -4.4106   -2.8631 C.3       1 <0>        -0.1551
     41 C31        -1.2352   -3.1227   -2.8665 C.3       1 <0>         0.0510
     42 O5         -0.5483   -2.1478   -2.0731 O.3       1 <0>        -0.3634
     43 H4         -2.7710   11.6293    1.4896 H         1 <0>         0.0574
     44 H5         -1.8402   13.1429    1.5927 H         1 <0>         0.0649
     45 H6         -1.5207   11.9897    0.2750 H         1 <0>         0.0574
     46 H7         -1.0245   11.4824    3.2438 H         1 <0>         0.0736
     47 H8          0.2257   11.8428    2.0292 H         1 <0>         0.0736
     48 H9         -0.4122    9.8055    0.7679 H         1 <0>         0.0608
     49 H10        -1.6625    9.4451    1.9825 H         1 <0>         0.0610
     50 H11        -1.0004    7.7979    0.8710 H         1 <0>         0.1335
     51 H12        -0.6700    5.3878    0.4966 H         1 <0>         0.1230
     52 H13         2.3051    5.3067    3.5513 H         1 <0>         0.1344
     53 H14         2.5559    6.2761    5.3861 H         1 <0>         0.0608
     54 H15         3.8064    6.6359    4.1716 H         1 <0>         0.0613
     55 H16         4.5242    7.3635    6.4308 H         1 <0>         0.0779
     56 H17         4.3319    8.7581    5.3415 H         1 <0>         0.0665
     57 H18         3.0814    8.3983    6.5560 H         1 <0>         0.0664
     58 H19         2.5228    3.7832    0.1999 H         1 <0>         0.1132
     59 H20         0.8558    4.0806   -0.3563 H         1 <0>         0.0847
     60 H21         3.1184   -0.5827    0.3051 H         1 <0>         0.1172
     61 H22         2.7503   -0.4101   -1.4208 H         1 <0>         0.1106
     62 H23        -0.4698    4.8057    4.3322 H         1 <0>         0.1266
     63 H24        -2.4172    4.6759    5.8319 H         1 <0>         0.1170
     64 H25        -4.2063    3.0757    5.4558 H         1 <0>         0.1209
     65 H26        -4.1585    1.5013    3.5523 H         1 <0>         0.1279
     66 H27        -1.7920    1.5972   -1.2074 H         1 <0>         0.0822
     67 H28        -0.7923    3.0698   -1.2314 H         1 <0>         0.0799
     68 H29        -0.2672    1.6229   -2.1254 H         1 <0>         0.0737
     69 H30         1.9094   -2.6303    0.1824 H         1 <0>         0.0972
     70 H31         0.1615   -2.4794    0.4830 H         1 <0>         0.1002
     71 H32         1.4383   -4.7503   -1.6865 H         1 <0>         0.0859
     72 H33        -0.0485   -4.5494   -0.6978 H         1 <0>         0.0826
     73 H34        -1.0169   -5.2937   -2.7756 H         1 <0>         0.0832
     74 H35         0.2370   -4.4675   -3.7571 H         1 <0>         0.0769
     75 H36        -2.2154   -3.3262   -2.4354 H         1 <0>         0.0690
     76 H37        -1.3475   -2.7564   -3.8869 H         1 <0>         0.0660
@<TRIPOS>BOND
     1    1    2 1
     2    1   43 1
     3    1   44 1
     4    1   45 1
     5    2    3 1
     6    2   46 1
     7    2   47 1
     8    3    4 1
     9    3   48 1
    10    3   49 1
    11    4    5 1
    12    5   10 ar
    13    5    6 ar
    14    6    7 ar
    15    6   50 1
    16    7    8 ar
    17    7   51 1
    18    8    9 ar
    19    8   14 1
    20    9   10 ar
    21    9   52 1
    22   10   11 1
    23   11   12 1
    24   12   13 1
    25   12   53 1
    26   12   54 1
    27   13   55 1
    28   13   56 1
    29   13   57 1
    30   14   15 1
    31   14   26 1
    32   14   16 1
    33   16   17 1
    34   16   58 1
    35   16   59 1
    36   17   24 1
    37   17   18 am
    38   18   19 2
    39   18   20 1
    40   20   21 1
    41   20   60 1
    42   20   61 1
    43   21   22 am
    44   21   36 1
    45   22   23 2
    46   22   24 1
    47   24   25 1
    48   24   35 1
    49   25   33 1
    50   25   26 2
    51   26   27 1
    52   27   32 ar
    53   27   28 ar
    54   28   29 ar
    55   28   62 1
    56   29   30 ar
    57   29   63 1
    58   30   31 ar
    59   30   64 1
    60   31   32 ar
    61   31   65 1
    62   32   33 1
    63   33   34 1
    64   35   66 1
    65   35   67 1
    66   35   68 1
    67   36   37 1
    68   36   69 1
    69   36   70 1
    70   37   38 1
    71   37   42 1
    72   37   39 1
    73   39   40 1
    74   39   71 1
    75   39   72 1
    76   40   41 1
    77   40   73 1
    78   40   74 1
    79   41   42 1
    80   41   75 1
    81   41   76 1
@<TRIPOS>MOLECULE
ZINC28159672
   58    63     0     0     0
SMALL
USER_CHARGES
2-[(5R)-2-[(5R)-3-(1,3-benzodioxol-5-yl)-5-(2-thienyl)-4,5-dihydropyrazol-1-yl]-4-oxo-thiazol-5-yl]-N-(p-tolyl)acetamide
@<TRIPOS>ATOM
      1 C1         -0.1250   -8.3884    2.4377 C.3       1 <0>        -0.1165
      2 C2          0.4734   -7.0063    2.3865 C.ar      1 <0>        -0.1003
      3 C3          0.7915   -6.4369    1.1671 C.ar      1 <0>        -0.1024
      4 C4          1.3392   -5.1700    1.1168 C.ar      1 <0>        -0.1175
      5 C5          1.5709   -4.4681    2.2924 C.ar      1 <0>         0.1409
      6 C6          1.2556   -5.0450    3.5157 C.ar      1 <0>        -0.1403
      7 C7          0.7029   -6.3099    3.5590 C.ar      1 <0>        -0.1034
      8 N1          2.1261   -3.1846    2.2449 N.am      1 <0>        -0.6832
      9 C8          1.8135   -2.3522    1.2320 C.2       1 <0>         0.5163
     10 O1          1.1183   -2.7433    0.3183 O.2       1 <0>        -0.5112
     11 C9          2.3278   -0.9357    1.2347 C.3       1 <0>        -0.1208
     12 C10         1.8313   -0.2105   -0.0177 C.3       1 <0>        -0.1375
     13 H1          2.3741   -0.7818   -0.7852 H         1 <0>         0.1609
     14 C11         2.2544    1.2533   -0.0174 C.2       1 <0>         0.5419
     15 O2          3.4218    1.5926   -0.0329 O.2       1 <0>        -0.4583
     16 N2          1.2769    2.1173    0.0011 N.2       1 <0>        -0.6689
     17 C12        -0.0095    1.7920    0.0189 C.2       1 <0>         0.5397
     18 S1          0.0058    0.0044    0.0106 S.3       1 <0>        -0.0480
     19 N3         -1.0898    2.6258    0.0339 N.pl3     1 <0>        -0.3901
     20 C13        -1.0359    4.0964    0.0400 C.3       1 <0>         0.2004
     21 H2         -0.4451    4.4706    0.8891 H         1 <0>         0.1326
     22 C14        -2.5202    4.5125    0.0567 C.3       1 <0>        -0.1292
     23 C15        -3.2671    3.1979    0.0582 C.2       1 <0>         0.1793
     24 N4         -2.4238    2.2238    0.0398 N.2       1 <0>        -0.2299
     25 C16        -4.7341    3.0530    0.0722 C.ar      1 <0>        -0.0361
     26 C17        -5.5500    4.1871    0.0854 C.ar      1 <0>        -0.0663
     27 C18        -6.9217    4.0491    0.0985 C.ar      1 <0>        -0.1029
     28 C19        -7.4968    2.7863    0.0981 C.ar      1 <0>         0.0606
     29 C20        -6.6884    1.6500    0.0849 C.ar      1 <0>         0.0313
     30 C21        -5.3125    1.7812    0.0664 C.ar      1 <0>        -0.0570
     31 O3         -7.4900    0.5447    0.0876 O.3       1 <0>        -0.3051
     32 C22        -8.7838    1.0095    0.5154 C.3       1 <0>         0.2075
     33 O4         -8.8032    2.3905    0.1089 O.3       1 <0>        -0.2999
     34 C23        -0.3559    4.6073   -1.2040 C.2       1 <0>        -0.1790
     35 C24         0.5010    5.6485   -1.3420 C.2       1 <0>        -0.1158
     36 C25         1.0081    5.9378   -2.5949 C.2       1 <0>        -0.1587
     37 C26         0.6335    5.1718   -3.6486 C.2       1 <0>        -0.1594
     38 S2         -0.4637    3.9936   -2.8770 S.3       1 <0>         0.0517
     39 H3         -0.2321   -8.7797    1.4152 H         1 <0>         0.0653
     40 H4         -1.1135   -8.3424    2.9181 H         1 <0>         0.0693
     41 H5          0.5338   -9.0519    3.0171 H         1 <0>         0.0693
     42 H6          0.6111   -6.9833    0.2532 H         1 <0>         0.1246
     43 H7          1.5874   -4.7259    0.1641 H         1 <0>         0.1377
     44 H8          1.4384   -4.5032    4.4320 H         1 <0>         0.1250
     45 H9          0.4534   -6.7573    4.5097 H         1 <0>         0.1253
     46 H10         2.8177   -2.8550    3.0342 H         1 <0>         0.4362
     47 H11         1.9602   -0.4139    2.1306 H         1 <0>         0.1058
     48 H12         3.4277   -0.9450    1.2412 H         1 <0>         0.1259
     49 H13        -2.7243    5.1067    0.9596 H         1 <0>         0.1288
     50 H14        -2.7422    5.1149   -0.8365 H         1 <0>         0.1256
     51 H15        -5.1063    5.1718    0.0858 H         1 <0>         0.1492
     52 H16        -7.5508    4.9269    0.1088 H         1 <0>         0.1470
     53 H17        -4.6855    0.9020    0.0513 H         1 <0>         0.1483
     54 H18        -9.5680    0.4184    0.0198 H         1 <0>         0.1384
     55 H19        -8.8724    0.8951    1.6058 H         1 <0>         0.0908
     56 H20         0.7830    6.2434   -0.4858 H         1 <0>         0.1362
     57 H21         1.6922    6.7621   -2.7323 H         1 <0>         0.1380
     58 H22         0.9260    5.2512   -4.6852 H         1 <0>         0.1879
@<TRIPOS>BOND
     1    1    2 1
     2    1   39 1
     3    1   40 1
     4    1   41 1
     5    2    7 ar
     6    2    3 ar
     7    3    4 ar
     8    3   42 1
     9    4    5 ar
    10    4   43 1
    11    5    6 ar
    12    5    8 1
    13    6    7 ar
    14    6   44 1
    15    7   45 1
    16    8    9 am
    17    8   46 1
    18    9   10 2
    19    9   11 1
    20   11   12 1
    21   11   47 1
    22   11   48 1
    23   12   13 1
    24   12   18 1
    25   12   14 1
    26   14   15 2
    27   14   16 1
    28   16   17 2
    29   17   18 1
    30   17   19 1
    31   19   24 1
    32   19   20 1
    33   20   21 1
    34   20   22 1
    35   20   34 1
    36   22   23 1
    37   22   49 1
    38   22   50 1
    39   23   24 2
    40   23   25 1
    41   25   30 ar
    42   25   26 ar
    43   26   27 ar
    44   26   51 1
    45   27   28 ar
    46   27   52 1
    47   28   33 1
    48   28   29 ar
    49   29   30 ar
    50   29   31 1
    51   30   53 1
    52   31   32 1
    53   32   33 1
    54   32   54 1
    55   32   55 1
    56   34   38 1
    57   34   35 2
    58   35   36 1
    59   35   56 1
    60   36   37 2
    61   36   57 1
    62   37   38 1
    63   37   58 1
@<TRIPOS>MOLECULE
ZINC03772747
   69    73     0     0     0
SMALL
USER_CHARGES

@<TRIPOS>ATOM
      1 C1          5.1567    1.5512   -1.1058 C.3       1 <0>         0.0264
      2 O1          5.0919    0.1246   -1.1559 O.3       1 <0>        -0.3173
      3 C2          4.9485   -0.5288    0.0278 C.ar      1 <0>         0.1126
      4 C3          4.8663    0.1905    1.2112 C.ar      1 <0>        -0.1871
      5 C4          4.7207   -0.4724    2.4137 C.ar      1 <0>        -0.1070
      6 C5          4.6565   -1.8592    2.4383 C.ar      1 <0>         0.1052
      7 C6          4.7389   -2.5785    1.2536 C.ar      1 <0>        -0.0944
      8 C7          4.8788   -1.9140    0.0511 C.ar      1 <0>        -0.1315
      9 N1          4.5092   -2.5324    3.6582 N.am      1 <0>        -0.6598
     10 C8          3.9791   -3.7713    3.6844 C.2       1 <0>         0.5124
     11 O2          3.6865   -4.3278    2.6472 O.2       1 <0>        -0.5112
     12 C9          3.7498   -4.4650    5.0025 C.3       1 <0>         0.1306
     13 H1          4.6313   -4.3481    5.6328 H         1 <0>         0.1264
     14 C10         2.5376   -3.8453    5.7009 C.3       1 <0>        -0.1071
     15 H2          1.6733   -3.8844    5.0379 H         1 <0>         0.1067
     16 C11         2.2340   -4.6191    6.9901 C.3       1 <0>        -0.1035
     17 C12         0.9192   -4.0944    7.5712 C.3       1 <0>        -0.0982
     18 C13         0.9451   -2.5954    7.6374 C.2       1 <0>        -0.1454
     19 C14         1.7793   -1.8548    6.9807 C.2       1 <0>        -0.1572
     20 C15         2.8417   -2.3904    6.0646 C.3       1 <0>        -0.0927
     21 N2          3.5026   -5.8898    4.7679 N.am      1 <0>        -0.5834
     22 C16         2.4612   -6.3073    3.8259 C.3       1 <0>         0.1506
     23 C17         1.3931   -7.0720    4.5644 C.ar      1 <0>        -0.1550
     24 C18         1.4782   -8.4473    4.6741 C.ar      1 <0>        -0.1062
     25 C19         0.4987   -9.1490    5.3514 C.ar      1 <0>        -0.1241
     26 C20        -0.5672   -8.4763    5.9199 C.ar      1 <0>        -0.0790
     27 C21        -0.6541   -7.1016    5.8119 C.ar      1 <0>        -0.1502
     28 C22         0.3294   -6.3969    5.1381 C.ar      1 <0>         0.1226
     29 F1          0.2479   -5.0523    5.0359 F         1 <0>        -0.1230
     30 C23         4.2334   -6.8166    5.4188 C.2       1 <0>         0.5058
     31 O3          5.0062   -6.4774    6.2898 O.2       1 <0>        -0.5045
     32 C24         4.0902   -8.2742    5.0642 C.3       1 <0>         0.1091
     33 N3          5.3450   -8.9727    5.3537 N.pl3     1 <0>        -0.3884
     34 C25         6.4061   -9.1467    4.4973 C.ar      1 <0>         0.0889
     35 C26         6.6594   -8.7687    3.1830 C.ar      1 <0>        -0.1254
     36 C27         7.8471   -9.1047    2.5963 C.ar      1 <0>        -0.0627
     37 C28         8.8055   -9.8218    3.3010 C.ar      1 <0>        -0.1341
     38 C29         8.5815  -10.2044    4.5911 C.ar      1 <0>        -0.0328
     39 C30         7.3721   -9.8721    5.2161 C.ar      1 <0>        -0.0146
     40 N4          6.8761  -10.1053    6.4475 N.2       1 <0>        -0.2140
     41 N5          5.7027   -9.5904    6.5614 N.2       1 <0>         0.0123
     42 H3          6.0092    1.8551   -0.4985 H         1 <0>         0.0556
     43 H4          5.2711    1.9454   -2.1156 H         1 <0>         0.1010
     44 H5          4.2392    1.9414   -0.6653 H         1 <0>         0.0555
     45 H6          4.9165    1.2692    1.1919 H         1 <0>         0.1325
     46 H7          4.6570    0.0877    3.3350 H         1 <0>         0.1285
     47 H8          4.6895   -3.6572    1.2720 H         1 <0>         0.1620
     48 H9          4.9385   -2.4732   -0.8709 H         1 <0>         0.1345
     49 H10         4.7888   -2.1070    4.4838 H         1 <0>         0.4126
     50 H11         2.1373   -5.6814    6.7657 H         1 <0>         0.0642
     51 H12         3.0394   -4.4650    7.7082 H         1 <0>         0.0669
     52 H13         0.0914   -4.4139    6.9381 H         1 <0>         0.0822
     53 H14         0.7810   -4.4980    8.5742 H         1 <0>         0.0708
     54 H15         0.2226   -2.1040    8.2720 H         1 <0>         0.1036
     55 H16         1.7047   -0.7835    7.0960 H         1 <0>         0.1055
     56 H17         3.8079   -2.3377    6.5664 H         1 <0>         0.0761
     57 H18         2.8759   -1.7902    5.1553 H         1 <0>         0.0760
     58 H19         2.0202   -5.4270    3.3583 H         1 <0>         0.1166
     59 H20         2.8999   -6.9450    3.0585 H         1 <0>         0.0912
     60 H21         2.3101   -8.9737    4.2301 H         1 <0>         0.1383
     61 H22         0.5658  -10.2236    5.4363 H         1 <0>         0.1351
     62 H23        -1.3323   -9.0257    6.4482 H         1 <0>         0.1369
     63 H24        -1.4869   -6.5764    6.2558 H         1 <0>         0.1388
     64 H25         3.2853   -8.7141    5.6531 H         1 <0>         0.1454
     65 H26         3.8579   -8.3690    4.0035 H         1 <0>         0.1242
     66 H27         5.9195   -8.2116    2.6276 H         1 <0>         0.1289
     67 H28         8.0421   -8.8103    1.5757 H         1 <0>         0.1388
     68 H29         9.7385  -10.0797    2.8220 H         1 <0>         0.1386
     69 H30         9.3339  -10.7620    5.1291 H         1 <0>         0.1401
@<TRIPOS>BOND
     1    1    2 1
     2    1   42 1
     3    1   43 1
     4    1   44 1
     5    2    3 1
     6    3    8 ar
     7    3    4 ar
     8    4    5 ar
     9    4   45 1
    10    5    6 ar
    11    5   46 1
    12    6    7 ar
    13    6    9 1
    14    7    8 ar
    15    7   47 1
    16    8   48 1
    17    9   10 am
    18    9   49 1
    19   10   11 2
    20   10   12 1
    21   12   13 1
    22   12   14 1
    23   12   21 1
    24   14   15 1
    25   14   20 1
    26   14   16 1
    27   16   17 1
    28   16   50 1
    29   16   51 1
    30   17   18 1
    31   17   52 1
    32   17   53 1
    33   18   19 2
    34   18   54 1
    35   19   20 1
    36   19   55 1
    37   20   56 1
    38   20   57 1
    39   21   22 1
    40   21   30 am
    41   22   23 1
    42   22   58 1
    43   22   59 1
    44   23   28 ar
    45   23   24 ar
    46   24   25 ar
    47   24   60 1
    48   25   26 ar
    49   25   61 1
    50   26   27 ar
    51   26   62 1
    52   27   28 ar
    53   27   63 1
    54   28   29 1
    55   30   31 2
    56   30   32 1
    57   32   33 1
    58   32   64 1
    59   32   65 1
    60   33   41 1
    61   33   34 1
    62   34   39 ar
    63   34   35 ar
    64   35   36 ar
    65   35   66 1
    66   36   37 ar
    67   36   67 1
    68   37   38 ar
    69   37   68 1
    70   38   39 ar
    71   38   69 1
    72   39   40 1
    73   40   41 2
@<TRIPOS>MOLECULE
ZINC41025658
   67    72     0     0     0
SMALL
USER_CHARGES

@<TRIPOS>ATOM
      1 C1         -0.0173    1.4248    0.0099 C.3       1 <0>         0.0242
      2 O1          0.0021   -0.0041    0.0020 O.3       1 <0>        -0.3045
      3 C2          0.6262   -0.6187    1.0421 C.ar      1 <0>         0.1133
      4 C3          1.2016    0.1398    2.0501 C.ar      1 <0>        -0.1743
      5 C4          1.8359   -0.4803    3.1073 C.ar      1 <0>        -0.0815
      6 C5          1.8992   -1.8713    3.1637 C.ar      1 <0>        -0.0198
      7 C6          1.3212   -2.6347    2.1512 C.ar      1 <0>        -0.1414
      8 C7          0.6815   -2.0090    1.0962 C.ar      1 <0>         0.0968
      9 O2          0.1112   -2.7514    0.1097 O.3       1 <0>        -0.3049
     10 C8          0.2060   -4.1722    0.2297 C.3       1 <0>         0.0249
     11 C9          2.5815   -2.5386    4.2998 C.2       1 <0>         0.1430
     12 C10         3.1128   -1.8978    5.4349 C.2       1 <0>        -0.2467
     13 C11         3.6500   -2.8535    6.2384 C.2       1 <0>         0.3066
     14 N1          3.4635   -4.0578    5.6300 N.pl3     1 <0>        -0.3334
     15 N2          2.7893   -3.8330    4.4231 N.2       1 <0>        -0.2647
     16 C12         3.8701   -5.3029    6.1265 C.ar      1 <0>         0.1516
     17 C13         5.0488   -5.4112    6.8527 C.ar      1 <0>        -0.1494
     18 C14         5.4468   -6.6401    7.3413 C.ar      1 <0>        -0.0884
     19 C15         4.6731   -7.7622    7.1076 C.ar      1 <0>        -0.1198
     20 C16         3.4989   -7.6577    6.3848 C.ar      1 <0>        -0.0932
     21 C17         3.0925   -6.4306    5.8984 C.ar      1 <0>        -0.1080
     22 N3          4.2786   -2.6397    7.4631 N.am      1 <0>        -0.6358
     23 C18         4.3960   -1.3889    7.9511 C.2       1 <0>         0.6080
     24 O3          3.9531   -0.4469    7.3223 O.2       1 <0>        -0.4662
     25 C19         5.0615   -1.1626    9.2475 C.2       1 <0>         0.0130
     26 C20         5.2417    0.0397    9.8547 C.2       1 <0>        -0.1721
     27 C21         5.9206   -0.1875   11.0744 C.2       1 <0>         0.1505
     28 N4          6.1344   -1.4756   11.1853 N.2       1 <0>        -0.2799
     29 O4          5.5933   -2.1121   10.0423 O.3       1 <0>        -0.0661
     30 C22         6.3216    0.8512   12.0563 C.ar      1 <0>        -0.0517
     31 C23         6.0280    2.1925   11.8184 C.ar      1 <0>        -0.0831
     32 C24         6.4083    3.1460   12.7361 C.ar      1 <0>        -0.1208
     33 C25         7.0807    2.7850   13.8982 C.ar      1 <0>        -0.0497
     34 C26         7.3689    1.4596   14.1406 C.ar      1 <0>        -0.0777
     35 C27         6.9876    0.4923   13.2225 C.ar      1 <0>        -0.0773
     36 C28         8.0797    0.9994   15.3866 C.3       1 <0>        -0.0832
     37 C29         8.7913    2.1693   16.0628 C.3       1 <0>        -0.1214
     38 C30         7.7863    3.3148   16.2312 C.3       1 <0>        -0.1221
     39 C31         7.4709    3.8857   14.8503 C.3       1 <0>        -0.0865
     40 H1          1.0053    1.8021    0.0021 H         1 <0>         0.0569
     41 H2         -0.5445    1.7859   -0.8732 H         1 <0>         0.1017
     42 H3         -0.5275    1.7763    0.9067 H         1 <0>         0.0569
     43 H4          1.1537    1.2179    2.0076 H         1 <0>         0.1419
     44 H5          2.2837    0.1126    3.8911 H         1 <0>         0.1366
     45 H6          1.3691   -3.7129    2.1921 H         1 <0>         0.1431
     46 H7         -0.2770   -4.4918    1.1532 H         1 <0>         0.0556
     47 H8         -0.2883   -4.6424   -0.6204 H         1 <0>         0.1018
     48 H9          1.2554   -4.4660    0.2480 H         1 <0>         0.0560
     49 H10         3.0971   -0.8360    5.6319 H         1 <0>         0.1834
     50 H11         5.6539   -4.5353    7.0349 H         1 <0>         0.1253
     51 H12         6.3634   -6.7250    7.9061 H         1 <0>         0.1370
     52 H13         4.9868   -8.7223    7.4901 H         1 <0>         0.1331
     53 H14         2.8970   -8.5360    6.2036 H         1 <0>         0.1357
     54 H15         2.1731   -6.3489    5.3378 H         1 <0>         0.1365
     55 H16         4.6319   -3.3911    7.9646 H         1 <0>         0.4217
     56 H17         4.9235    0.9987    9.4732 H         1 <0>         0.1790
     57 H18         5.5053    2.4826   10.9189 H         1 <0>         0.1325
     58 H19         6.1821    4.1857   12.5510 H         1 <0>         0.1321
     59 H20         7.2137   -0.5465   13.4128 H         1 <0>         0.1308
     60 H21         7.3531    0.5726   16.0780 H         1 <0>         0.0794
     61 H22         8.8129    0.2376   15.1214 H         1 <0>         0.0772
     62 H23         9.1611    1.8587   17.0400 H         1 <0>         0.0708
     63 H24         9.6245    2.5002   15.4427 H         1 <0>         0.0670
     64 H25         6.8724    2.9369   16.6897 H         1 <0>         0.0671
     65 H26         8.2185    4.0929   16.8603 H         1 <0>         0.0710
     66 H27         8.3512    4.3996   14.4642 H         1 <0>         0.0816
     67 H28         6.6487    4.5964   14.9345 H         1 <0>         0.0795
@<TRIPOS>BOND
     1    1    2 1
     2    1   40 1
     3    1   41 1
     4    1   42 1
     5    2    3 1
     6    3    8 ar
     7    3    4 ar
     8    4    5 ar
     9    4   43 1
    10    5    6 ar
    11    5   44 1
    12    6    7 ar
    13    6   11 1
    14    7    8 ar
    15    7   45 1
    16    8    9 1
    17    9   10 1
    18   10   46 1
    19   10   47 1
    20   10   48 1
    21   11   15 2
    22   11   12 1
    23   12   13 2
    24   12   49 1
    25   13   14 1
    26   13   22 1
    27   14   15 1
    28   14   16 1
    29   16   21 ar
    30   16   17 ar
    31   17   18 ar
    32   17   50 1
    33   18   19 ar
    34   18   51 1
    35   19   20 ar
    36   19   52 1
    37   20   21 ar
    38   20   53 1
    39   21   54 1
    40   22   23 am
    41   22   55 1
    42   23   24 2
    43   23   25 1
    44   25   29 1
    45   25   26 2
    46   26   27 1
    47   26   56 1
    48   27   28 2
    49   27   30 1
    50   28   29 1
    51   30   35 ar
    52   30   31 ar
    53   31   32 ar
    54   31   57 1
    55   32   33 ar
    56   32   58 1
    57   33   39 1
    58   33   34 ar
    59   34   35 ar
    60   34   36 1
    61   35   59 1
    62   36   37 1
    63   36   60 1
    64   36   61 1
    65   37   38 1
    66   37   62 1
    67   37   63 1
    68   38   39 1
    69   38   64 1
    70   38   65 1
    71   39   66 1
    72   39   67 1
@<TRIPOS>MOLECULE
ZINC08782413
   58    61     0     0     0
SMALL
USER_CHARGES
N-[5-chloro-4-[(4-chlorophenyl)-cyano-methyl]-2-methyl-phenyl]-1-(4-methoxyphenyl)-5-oxo-pyrrolidine-3-carboxamide
@<TRIPOS>ATOM
      1 C1          3.2672   -0.8313    1.5655 C.3       1 <0>        -0.1194
      2 C2          2.1303   -0.0521    0.9561 C.ar      1 <0>        -0.0973
      3 C3          2.2650    1.3039    0.7295 C.ar      1 <0>        -0.0770
      4 C4          1.2228    2.0200    0.1709 C.ar      1 <0>        -0.0849
      5 C5          0.0412    1.3810   -0.1632 C.ar      1 <0>        -0.0056
      6 C6         -0.0993    0.0246    0.0613 C.ar      1 <0>        -0.1048
      7 C7          0.9465   -0.6966    0.6223 C.ar      1 <0>         0.1633
      8 N1          0.8078   -2.0701    0.8505 N.am      1 <0>        -0.6671
      9 C8         -0.3921   -2.5782    1.1949 C.2       1 <0>         0.5207
     10 O1         -1.3696   -1.8607    1.2211 O.2       1 <0>        -0.4986
     11 C9         -0.5192   -4.0378    1.5476 C.3       1 <0>        -0.1239
     12 H1          0.0772   -4.2777    2.4279 H         1 <0>         0.1403
     13 C10        -0.1235   -4.9329    0.3504 C.3       1 <0>        -0.1461
     14 C11        -1.4328   -5.2084   -0.3555 C.2       1 <0>         0.5140
     15 O2         -1.5361   -5.6337   -1.4867 O.2       1 <0>        -0.5052
     16 N2         -2.4651   -4.9127    0.4531 N.am      1 <0>        -0.5506
     17 C12        -1.9987   -4.4290    1.7579 C.3       1 <0>         0.1078
     18 C13        -3.8131   -5.0482    0.0959 C.ar      1 <0>         0.1265
     19 C14        -4.1548   -5.6237   -1.1206 C.ar      1 <0>        -0.1136
     20 C15        -5.4837   -5.7623   -1.4694 C.ar      1 <0>        -0.1798
     21 C16        -6.4769   -5.3162   -0.6098 C.ar      1 <0>         0.1066
     22 C17        -6.1361   -4.7360    0.6032 C.ar      1 <0>        -0.1241
     23 C18        -4.8077   -4.6020    0.9558 C.ar      1 <0>        -0.1110
     24 O3         -7.7851   -5.4474   -0.9566 O.3       1 <0>        -0.3176
     25 C19        -8.0636   -6.0540   -2.2201 C.3       1 <0>         0.0265
     26 Cl1        -1.2624    2.2827   -0.8711 Cl        1 <0>        -0.0506
     27 C20         1.3733    3.4992   -0.0748 C.3       1 <0>         0.0912
     28 H2          0.5072    3.8661   -0.6256 H         1 <0>         0.1368
     29 C21         2.5940    3.7444   -0.8601 C.1       1 <0>         0.2091
     30 N3          3.5360    3.9337   -1.4662 N.1       1 <0>        -0.4058
     31 C22         1.4718    4.2202    1.2448 C.ar      1 <0>        -0.0792
     32 C23         2.5800    4.0380    2.0508 C.ar      1 <0>        -0.0942
     33 C24         2.6734    4.7033    3.2586 C.ar      1 <0>        -0.1056
     34 C25         1.6523    5.5431    3.6662 C.ar      1 <0>        -0.0271
     35 C26         0.5408    5.7208    2.8618 C.ar      1 <0>        -0.1053
     36 C27         0.4511    5.0592    1.6516 C.ar      1 <0>        -0.0846
     37 Cl2         1.7659    6.3741    5.1862 Cl        1 <0>        -0.0636
     38 H3          3.9116   -1.2132    0.7737 H         1 <0>         0.0780
     39 H4          3.8444   -0.1791    2.2209 H         1 <0>         0.0774
     40 H5          2.8678   -1.6652    2.1428 H         1 <0>         0.0692
     41 H6          3.1859    1.8052    0.9887 H         1 <0>         0.1375
     42 H7         -1.0211   -0.4740   -0.1997 H         1 <0>         0.1571
     43 H8          1.5751   -2.6566    0.7607 H         1 <0>         0.4162
     44 H9          0.5626   -4.4038   -0.3111 H         1 <0>         0.1104
     45 H10         0.3262   -5.8619    0.7009 H         1 <0>         0.1279
     46 H11        -2.0774   -5.2202    2.5035 H         1 <0>         0.0964
     47 H12        -2.5786   -3.5593    2.0670 H         1 <0>         0.1087
     48 H13        -3.3815   -5.9666   -1.7920 H         1 <0>         0.1569
     49 H14        -5.7497   -6.2140   -2.4137 H         1 <0>         0.1327
     50 H15        -6.9098   -4.3886    1.2718 H         1 <0>         0.1367
     51 H16        -4.5425   -4.1505    1.9004 H         1 <0>         0.1339
     52 H17        -9.1420   -6.0973   -2.3726 H         1 <0>         0.1010
     53 H18        -7.6077   -5.4637   -3.0150 H         1 <0>         0.0557
     54 H19        -7.6536   -7.0638   -2.2367 H         1 <0>         0.0556
     55 H20         3.3751    3.3789    1.7345 H         1 <0>         0.1309
     56 H21         3.5413    4.5643    3.8862 H         1 <0>         0.1377
     57 H22        -0.2568    6.3759    3.1796 H         1 <0>         0.1399
     58 H23        -0.4167    5.1976    1.0237 H         1 <0>         0.1399
@<TRIPOS>BOND
     1    1    2 1
     2    1   38 1
     3    1   39 1
     4    1   40 1
     5    2    7 ar
     6    2    3 ar
     7    3    4 ar
     8    3   41 1
     9    4    5 ar
    10    4   27 1
    11    5    6 ar
    12    5   26 1
    13    6    7 ar
    14    6   42 1
    15    7    8 1
    16    8    9 am
    17    8   43 1
    18    9   10 2
    19    9   11 1
    20   11   12 1
    21   11   17 1
    22   11   13 1
    23   13   14 1
    24   13   44 1
    25   13   45 1
    26   14   15 2
    27   14   16 am
    28   16   17 1
    29   16   18 1
    30   17   46 1
    31   17   47 1
    32   18   23 ar
    33   18   19 ar
    34   19   20 ar
    35   19   48 1
    36   20   21 ar
    37   20   49 1
    38   21   22 ar
    39   21   24 1
    40   22   23 ar
    41   22   50 1
    42   23   51 1
    43   24   25 1
    44   25   52 1
    45   25   53 1
    46   25   54 1
    47   27   28 1
    48   27   29 1
    49   27   31 1
    50   29   30 3
    51   31   36 ar
    52   31   32 ar
    53   32   33 ar
    54   32   55 1
    55   33   34 ar
    56   33   56 1
    57   34   35 ar
    58   34   37 1
    59   35   36 ar
    60   35   57 1
    61   36   58 1
@<TRIPOS>MOLECULE
ZINC16426328
   76    79     0     0     0
SMALL
USER_CHARGES
3-(2,6-dimethylphenyl)-1-[(1R)-1-[3-(3,4-dimethylphenyl)-4-oxo-quinazolin-2-yl]propyl]-1-isobutyl-urea
@<TRIPOS>ATOM
      1 C1         -0.6429    1.2095    2.6933 C.3       1 <0>        -0.1454
      2 C2         -1.8396    0.6420    1.9274 C.3       1 <0>        -0.1236
      3 C3         -2.2703    1.6348    0.8459 C.3       1 <0>         0.2009
      4 H1         -2.4693    2.6048    1.3016 H         1 <0>         0.1352
      5 C4         -3.5199    1.1313    0.1706 C.2       1 <0>         0.3894
      6 N1         -3.5181   -0.0758   -0.3077 N.2       1 <0>        -0.4973
      7 C5         -4.6077   -0.5981   -0.9241 C.ar      1 <0>         0.1512
      8 C6         -4.6078   -1.8980   -1.4344 C.ar      1 <0>        -0.1058
      9 C7         -5.7342   -2.3859   -2.0575 C.ar      1 <0>        -0.0722
     10 C8         -6.8731   -1.6012   -2.1854 C.ar      1 <0>        -0.1349
     11 C9         -6.8974   -0.3158   -1.6906 C.ar      1 <0>        -0.0409
     12 C10        -5.7676    0.1973   -1.0563 C.ar      1 <0>        -0.1936
     13 C11        -5.7356    1.5614   -0.5092 C.2       1 <0>         0.5467
     14 O1         -6.7015    2.2978   -0.5898 O.2       1 <0>        -0.4935
     15 N2         -4.5907    1.9665    0.0881 N.am      1 <0>        -0.4899
     16 C12        -4.5073    3.2572    0.6256 C.ar      1 <0>         0.0979
     17 C13        -4.4551    3.4358    2.0019 C.ar      1 <0>        -0.1110
     18 C14        -4.3671    4.7093    2.5286 C.ar      1 <0>        -0.0997
     19 C15        -4.3419    5.8069    1.6874 C.ar      1 <0>        -0.0640
     20 C16        -4.4000    5.6327    0.3170 C.ar      1 <0>        -0.0665
     21 C17        -4.4823    4.3611   -0.2162 C.ar      1 <0>        -0.0797
     22 C18        -4.3728    6.8314   -0.5959 C.3       1 <0>        -0.1185
     23 C19        -4.2517    7.1956    2.2657 C.3       1 <0>        -0.1208
     24 N3         -1.2005    1.7713   -0.1456 N.am      1 <0>        -0.6102
     25 C20        -0.8388    0.6333   -0.9943 C.3       1 <0>         0.1116
     26 C21        -1.6377    0.6950   -2.2977 C.3       1 <0>        -0.1163
     27 C22        -1.2234    1.9356   -3.0916 C.3       1 <0>        -0.1624
     28 C23        -1.3567   -0.5591   -3.1280 C.3       1 <0>        -0.1402
     29 C24        -0.5490    2.9439   -0.2770 C.2       1 <0>         0.7100
     30 O2         -0.8492    3.8884    0.4274 O.2       1 <0>        -0.5579
     31 N4          0.4351    3.0694   -1.1892 N.am      1 <0>        -0.6878
     32 C25         1.1825    4.2509   -1.2540 C.ar      1 <0>         0.1503
     33 C26         0.5431    5.4692   -1.4418 C.ar      1 <0>        -0.0620
     34 C27         1.2830    6.6340   -1.4996 C.ar      1 <0>        -0.1170
     35 C28         2.6600    6.5867   -1.3822 C.ar      1 <0>        -0.1151
     36 C29         3.3001    5.3745   -1.2009 C.ar      1 <0>        -0.1168
     37 C30         2.5654    4.2067   -1.1365 C.ar      1 <0>        -0.0924
     38 C31         3.2638    2.8861   -0.9384 C.3       1 <0>        -0.1138
     39 C32        -0.9570    5.5210   -1.5766 C.3       1 <0>        -0.1041
     40 H2          0.1541    1.4554    1.9916 H         1 <0>         0.0557
     41 H3         -0.9471    2.1095    3.2276 H         1 <0>         0.0575
     42 H4         -0.2830    0.4678    3.4064 H         1 <0>         0.0605
     43 H5         -2.6666    0.4751    2.6176 H         1 <0>         0.0746
     44 H6         -1.5584   -0.3027    1.4622 H         1 <0>         0.0846
     45 H7         -3.7283   -2.5178   -1.3403 H         1 <0>         0.1404
     46 H8         -5.7324   -3.3914   -2.4516 H         1 <0>         0.1355
     47 H9         -7.7470   -2.0022   -2.6773 H         1 <0>         0.1346
     48 H10        -7.7858    0.2897   -1.7930 H         1 <0>         0.1376
     49 H11        -4.4791    2.5794    2.6594 H         1 <0>         0.1257
     50 H12        -4.3223    4.8486    3.5986 H         1 <0>         0.1324
     51 H13        -4.5269    4.2256   -1.2867 H         1 <0>         0.1192
     52 H14        -5.3920    7.1715   -0.7794 H         1 <0>         0.0738
     53 H15        -3.8014    7.6324   -0.1269 H         1 <0>         0.0757
     54 H16        -3.9054    6.5573   -1.5417 H         1 <0>         0.0661
     55 H17        -5.2556    7.5817    2.4420 H         1 <0>         0.0744
     56 H18        -3.7046    7.1619    3.2079 H         1 <0>         0.0696
     57 H19        -3.7294    7.8475    1.5655 H         1 <0>         0.0737
     58 H20         0.2270    0.6721   -1.2193 H         1 <0>         0.0708
     59 H21        -1.0664   -0.2961   -0.4723 H         1 <0>         0.1026
     60 H22        -2.7021    0.7485   -2.0693 H         1 <0>         0.0769
     61 H23        -1.8376    2.0147   -3.9886 H         1 <0>         0.0569
     62 H24        -1.3631    2.8242   -2.4760 H         1 <0>         0.0610
     63 H25        -0.1745    1.8516   -3.3757 H         1 <0>         0.0541
     64 H26        -1.6518   -1.4429   -2.5624 H         1 <0>         0.0607
     65 H27        -1.9258   -0.5152   -4.0565 H         1 <0>         0.0550
     66 H28        -0.2922   -0.6126   -3.3564 H         1 <0>         0.0544
     67 H29         0.6228    2.3425   -1.8033 H         1 <0>         0.4056
     68 H30         0.7859    7.5824   -1.6408 H         1 <0>         0.1232
     69 H31         3.2368    7.4984   -1.4326 H         1 <0>         0.1231
     70 H32         4.3757    5.3408   -1.1092 H         1 <0>         0.1243
     71 H33         3.5153    2.4589   -1.9091 H         1 <0>         0.0696
     72 H34         4.1760    3.0404   -0.3620 H         1 <0>         0.0699
     73 H35         2.6053    2.2039   -0.4007 H         1 <0>         0.0633
     74 H36        -1.3988    5.7918   -0.6177 H         1 <0>         0.0862
     75 H37        -1.2291    6.2651   -2.3251 H         1 <0>         0.0552
     76 H38        -1.3281    4.5434   -1.8844 H         1 <0>         0.0559
@<TRIPOS>BOND
     1    1    2 1
     2    1   40 1
     3    1   41 1
     4    1   42 1
     5    2    3 1
     6    2   43 1
     7    2   44 1
     8    3    4 1
     9    3    5 1
    10    3   24 1
    11    5   15 1
    12    5    6 2
    13    6    7 1
    14    7   12 ar
    15    7    8 ar
    16    8    9 ar
    17    8   45 1
    18    9   10 ar
    19    9   46 1
    20   10   11 ar
    21   10   47 1
    22   11   12 ar
    23   11   48 1
    24   12   13 1
    25   13   14 2
    26   13   15 am
    27   15   16 1
    28   16   21 ar
    29   16   17 ar
    30   17   18 ar
    31   17   49 1
    32   18   19 ar
    33   18   50 1
    34   19   20 ar
    35   19   23 1
    36   20   21 ar
    37   20   22 1
    38   21   51 1
    39   22   52 1
    40   22   53 1
    41   22   54 1
    42   23   55 1
    43   23   56 1
    44   23   57 1
    45   24   25 1
    46   24   29 am
    47   25   26 1
    48   25   58 1
    49   25   59 1
    50   26   27 1
    51   26   28 1
    52   26   60 1
    53   27   61 1
    54   27   62 1
    55   27   63 1
    56   28   64 1
    57   28   65 1
    58   28   66 1
    59   29   30 2
    60   29   31 am
    61   31   32 1
    62   31   67 1
    63   32   37 ar
    64   32   33 ar
    65   33   34 ar
    66   33   39 1
    67   34   35 ar
    68   34   68 1
    69   35   36 ar
    70   35   69 1
    71   36   37 ar
    72   36   70 1
    73   37   38 1
    74   38   71 1
    75   38   72 1
    76   38   73 1
    77   39   74 1
    78   39   75 1
    79   39   76 1
@<TRIPOS>MOLECULE
ZINC22537298
   70    73     0     0     0
SMALL
USER_CHARGES
2-[4-(3,4-dihydro-2H-quinolin-1-ylsulfonyl)-2-methyl-phenoxy]-N-[(1R)-1-(2,4,5-trimethylphenyl)ethyl]acetamide
@<TRIPOS>ATOM
      1 C1          2.4439  -13.4766   -6.6447 C.3       1 <0>        -0.1176
      2 C2          2.6411  -11.9864   -6.7513 C.ar      1 <0>        -0.0807
      3 C3          3.4487  -11.4653   -7.7450 C.ar      1 <0>        -0.1109
      4 C4          3.6250  -10.0982   -7.8463 C.ar      1 <0>        -0.0734
      5 C5          3.0020   -9.2524   -6.9474 C.ar      1 <0>        -0.0942
      6 C6          2.1946   -9.7733   -5.9539 C.ar      1 <0>        -0.1102
      7 C7          2.0141  -11.1405   -5.8558 C.ar      1 <0>        -0.0860
      8 C8          1.1333  -11.7085   -4.7729 C.3       1 <0>        -0.1163
      9 C9          3.1984   -7.7621   -7.0546 C.3       1 <0>         0.1891
     10 H1          4.2350   -7.5432   -7.3504 H         1 <0>         0.1021
     11 C10         2.2052   -7.1883   -8.0671 C.3       1 <0>        -0.1598
     12 N1          2.9729   -7.1444   -5.7455 N.am      1 <0>        -0.7348
     13 C11         3.5510   -5.9636   -5.4489 C.2       1 <0>         0.5197
     14 O1          4.2579   -5.4124   -6.2658 O.2       1 <0>        -0.5147
     15 C12         3.3190   -5.3282   -4.1022 C.3       1 <0>         0.0323
     16 O2          4.0327   -4.0923   -4.0293 O.3       1 <0>        -0.2765
     17 C13         3.9293   -3.3875   -2.8720 C.ar      1 <0>         0.1860
     18 C14         3.1563   -3.8751   -1.8280 C.ar      1 <0>        -0.2244
     19 C15         3.0570   -3.1594   -0.6509 C.ar      1 <0>         0.0149
     20 C16         3.7181   -1.9522   -0.5165 C.ar      1 <0>        -0.7106
     21 C17         4.4889   -1.4642   -1.5552 C.ar      1 <0>         0.0178
     22 C18         4.5960   -2.1791   -2.7326 C.ar      1 <0>        -0.1264
     23 C19         5.4360   -1.6463   -3.8647 C.3       1 <0>        -0.1097
     24 S1          3.5836   -1.0381    0.9838 S.o2      1 <0>         2.6888
     25 O3          4.7380   -0.2131    1.0616 O.2       1 <0>        -0.9442
     26 O4          3.2449   -1.9722    1.9996 O.2       1 <0>        -0.9418
     27 N2          2.2858   -0.0221    0.8234 N.pl3     1 <0>        -0.9364
     28 C20         2.4746    1.3663    0.3812 C.3       1 <0>         0.0999
     29 C21         1.6209    2.2662    1.2842 C.3       1 <0>        -0.1312
     30 C22         0.1481    1.9074    1.0880 C.3       1 <0>        -0.0789
     31 C23        -0.0582    0.4237    1.2430 C.ar      1 <0>        -0.1112
     32 C24         0.9914   -0.4718    1.1064 C.ar      1 <0>         0.1791
     33 C25         0.7653   -1.8360    1.2515 C.ar      1 <0>        -0.1779
     34 C26        -0.5040   -2.2998    1.5341 C.ar      1 <0>        -0.0851
     35 C27        -1.5497   -1.4059    1.6727 C.ar      1 <0>        -0.1424
     36 C28        -1.3277   -0.0500    1.5275 C.ar      1 <0>        -0.0901
     37 C29         4.5004   -9.5298   -8.9334 C.3       1 <0>        -0.1285
     38 H2          3.0175  -13.9799   -7.4369 H         1 <0>         0.0657
     39 H3          1.3758  -13.7141   -6.7579 H         1 <0>         0.0712
     40 H4          2.7944  -13.8234   -5.6614 H         1 <0>         0.0710
     41 H5          3.9384  -12.1262   -8.4449 H         1 <0>         0.1247
     42 H6          1.7044   -9.1124   -5.2545 H         1 <0>         0.1181
     43 H7          0.7258  -10.8881   -4.1639 H         1 <0>         0.0641
     44 H8          1.7249  -12.3806   -4.1340 H         1 <0>         0.0710
     45 H9          0.3063  -12.2713   -5.2305 H         1 <0>         0.0711
     46 H10         2.3486   -6.1005   -8.1453 H         1 <0>         0.0660
     47 H11         1.1785   -7.3998   -7.7338 H         1 <0>         0.0614
     48 H12         2.3745   -7.6521   -9.0501 H         1 <0>         0.0715
     49 H13         2.3317   -7.6443   -5.0046 H         1 <0>         0.4183
     50 H14         2.2439   -5.1394   -3.9662 H         1 <0>         0.0994
     51 H15         3.6754   -6.0046   -3.3113 H         1 <0>         0.0996
     52 H16         2.6363   -4.8157   -1.9342 H         1 <0>         0.1407
     53 H17         2.4591   -3.5407    0.1636 H         1 <0>         0.1448
     54 H18         5.0081   -0.5234   -1.4460 H         1 <0>         0.1485
     55 H19         5.8820   -0.6851   -3.5695 H         1 <0>         0.0708
     56 H20         4.8038   -1.4998   -4.7529 H         1 <0>         0.0754
     57 H21         6.2353   -2.3651   -4.0980 H         1 <0>         0.0759
     58 H22         3.5372    1.6372    0.4673 H         1 <0>         0.1078
     59 H23         2.1551    1.4640   -0.6668 H         1 <0>         0.0811
     60 H24         1.9060    2.1077    2.3347 H         1 <0>         0.0758
     61 H25         1.7867    3.3196    1.0142 H         1 <0>         0.0896
     62 H26        -0.4605    2.4332    1.8385 H         1 <0>         0.0831
     63 H27        -0.1717    2.2093    0.0797 H         1 <0>         0.0801
     64 H28         1.5830   -2.5331    1.1431 H         1 <0>         0.1387
     65 H29        -0.6799   -3.3594    1.6465 H         1 <0>         0.1286
     66 H30        -2.5424   -1.7685    1.8952 H         1 <0>         0.1250
     67 H31        -2.1484    0.6437    1.6362 H         1 <0>         0.1268
     68 H32         4.5183   -8.4328   -8.8537 H         1 <0>         0.0717
     69 H33         4.0996   -9.8196   -9.9159 H         1 <0>         0.0741
     70 H34         5.5222   -9.9221   -8.8240 H         1 <0>         0.0727
@<TRIPOS>BOND
     1    1    2 1
     2    1   38 1
     3    1   39 1
     4    1   40 1
     5    2    7 ar
     6    2    3 ar
     7    3    4 ar
     8    3   41 1
     9    4    5 ar
    10    4   37 1
    11    5    6 ar
    12    5    9 1
    13    6    7 ar
    14    6   42 1
    15    7    8 1
    16    8   43 1
    17    8   44 1
    18    8   45 1
    19    9   10 1
    20    9   11 1
    21    9   12 1
    22   11   46 1
    23   11   47 1
    24   11   48 1
    25   12   13 am
    26   12   49 1
    27   13   14 2
    28   13   15 1
    29   15   16 1
    30   15   50 1
    31   15   51 1
    32   16   17 1
    33   17   22 ar
    34   17   18 ar
    35   18   19 ar
    36   18   52 1
    37   19   20 ar
    38   19   53 1
    39   20   21 ar
    40   20   24 1
    41   21   22 ar
    42   21   54 1
    43   22   23 1
    44   23   55 1
    45   23   56 1
    46   23   57 1
    47   24   25 2
    48   24   26 2
    49   24   27 1
    50   27   32 1
    51   27   28 1
    52   28   29 1
    53   28   58 1
    54   28   59 1
    55   29   30 1
    56   29   60 1
    57   29   61 1
    58   30   31 1
    59   30   62 1
    60   30   63 1
    61   31   36 ar
    62   31   32 ar
    63   32   33 ar
    64   33   34 ar
    65   33   64 1
    66   34   35 ar
    67   34   65 1
    68   35   36 ar
    69   35   66 1
    70   36   67 1
    71   37   68 1
    72   37   69 1
    73   37   70 1
@<TRIPOS>MOLECULE
ZINC38785436
   58    61     0     0     0
SMALL
USER_CHARGES

@<TRIPOS>ATOM
      1 C1         -0.0384    1.5436    0.0118 C.3       1 <0>        -0.1460
      2 C2         -0.0052    0.0140    0.0049 C.3       1 <0>        -0.1217
      3 H1          0.5093   -0.3342   -0.8908 H         1 <0>         0.1311
      4 C3         -1.4147   -0.5191    0.0137 C.2       1 <0>         0.5394
      5 O1         -1.9413   -0.8239    1.0630 O.2       1 <0>        -0.5009
      6 N1         -2.0902   -0.6573   -1.1443 N.am      1 <0>        -0.6527
      7 C4         -3.3648   -1.2395   -1.1468 C.ar      1 <0>         0.1262
      8 C5         -4.2255   -1.0333   -0.0786 C.ar      1 <0>        -0.0758
      9 C6         -5.4830   -1.6087   -0.0836 C.ar      1 <0>        -0.0530
     10 C7         -5.8851   -2.3905   -1.1523 C.ar      1 <0>        -0.0798
     11 C8         -5.0319   -2.6001   -2.2196 C.ar      1 <0>        -0.1790
     12 C9         -3.7728   -2.0219   -2.2245 C.ar      1 <0>         0.1127
     13 O2         -2.9350   -2.2225   -3.2768 O.3       1 <0>        -0.3150
     14 C10        -3.4205   -3.0360   -4.3467 C.3       1 <0>         0.0262
     15 Cl1        -6.5593   -1.3500    1.2537 Cl        1 <0>        -0.0603
     16 S1          0.8746   -0.5784    1.4765 S.3       1 <0>         0.1379
     17 C11         2.5239   -0.0023    1.2478 C.2       1 <0>         0.3950
     18 N2          2.8031    0.6940    0.1596 N.2       1 <0>        -0.6252
     19 C12         4.0221    1.1692   -0.0959 C.2       1 <0>         0.5541
     20 O3          4.2464    1.8094   -1.1109 O.2       1 <0>        -0.4467
     21 C13         5.1054    0.8963    0.8953 C.2       1 <0>        -0.2975
     22 C14         6.4193    1.2811    0.8446 C.2       1 <0>         0.1080
     23 C15         7.3062    0.8650    1.9953 C.3       1 <0>        -0.1004
     24 S2          6.1321   -0.0619    3.0628 S.3       1 <0>         0.0293
     25 C16         4.6746    0.1124    2.0652 C.2       1 <0>         0.2809
     26 N3          3.4305   -0.2842    2.1822 N.2       1 <0>        -0.5125
     27 C17         6.9427    2.0627   -0.2782 C.ar      1 <0>        -0.0903
     28 C18         6.9772    1.5106   -1.5666 C.ar      1 <0>        -0.0518
     29 C19         7.4708    2.2536   -2.6167 C.ar      1 <0>        -0.1155
     30 C20         7.9320    3.5418   -2.4027 C.ar      1 <0>        -0.0491
     31 C21         7.9018    4.0955   -1.1337 C.ar      1 <0>        -0.1172
     32 C22         7.4068    3.3697   -0.0723 C.ar      1 <0>        -0.0821
     33 C23         8.4704    4.3459   -3.5578 C.3       1 <0>        -0.0621
     34 C24         7.6367    5.6177   -3.7264 C.3       1 <0>        -0.1460
     35 C25         9.9269    4.7239   -3.2812 C.3       1 <0>        -0.1449
     36 H2          0.9811    1.9292    0.0054 H         1 <0>         0.0946
     37 H3         -0.5671    1.8996   -0.8725 H         1 <0>         0.0746
     38 H4         -0.5530    1.8918    0.9074 H         1 <0>         0.0731
     39 H5         -1.6941   -0.3536   -1.9761 H         1 <0>         0.4200
     40 H6         -3.9134   -0.4241    0.7568 H         1 <0>         0.1592
     41 H7         -6.8679   -2.8384   -1.1523 H         1 <0>         0.1399
     42 H8         -5.3485   -3.2111   -3.0519 H         1 <0>         0.1439
     43 H9         -3.6585   -4.0300   -3.9682 H         1 <0>         0.0594
     44 H10        -4.3178   -2.5835   -4.7688 H         1 <0>         0.0595
     45 H11        -2.6555   -3.1148   -5.1191 H         1 <0>         0.1043
     46 H12         8.1134    0.2185    1.6510 H         1 <0>         0.1613
     47 H13         7.7023    1.7363    2.5168 H         1 <0>         0.1598
     48 H14         6.6183    0.5060   -1.7354 H         1 <0>         0.1206
     49 H15         7.4986    1.8300   -3.6098 H         1 <0>         0.1279
     50 H16         8.2636    5.1008   -0.9763 H         1 <0>         0.1289
     51 H17         7.3803    3.8046    0.9160 H         1 <0>         0.1264
     52 H18         8.4161    3.7523   -4.4704 H         1 <0>         0.0803
     53 H19         8.0262    6.1993   -4.5620 H         1 <0>         0.0608
     54 H20         6.5990    5.3484   -3.9236 H         1 <0>         0.0578
     55 H21         7.6910    6.2114   -2.8139 H         1 <0>         0.0574
     56 H22        10.5209    3.8178   -3.1611 H         1 <0>         0.0567
     57 H23        10.3164    5.3055   -4.1167 H         1 <0>         0.0608
     58 H24         9.9812    5.3175   -2.3686 H         1 <0>         0.0577
@<TRIPOS>BOND
     1    1    2 1
     2    1   36 1
     3    1   37 1
     4    1   38 1
     5    2    3 1
     6    2    4 1
     7    2   16 1
     8    4    5 2
     9    4    6 am
    10    6    7 1
    11    6   39 1
    12    7   12 ar
    13    7    8 ar
    14    8    9 ar
    15    8   40 1
    16    9   10 ar
    17    9   15 1
    18   10   11 ar
    19   10   41 1
    20   11   12 ar
    21   11   42 1
    22   12   13 1
    23   13   14 1
    24   14   43 1
    25   14   44 1
    26   14   45 1
    27   16   17 1
    28   17   26 1
    29   17   18 2
    30   18   19 1
    31   19   20 2
    32   19   21 1
    33   21   25 1
    34   21   22 2
    35   22   23 1
    36   22   27 1
    37   23   24 1
    38   23   46 1
    39   23   47 1
    40   24   25 1
    41   25   26 2
    42   27   32 ar
    43   27   28 ar
    44   28   29 ar
    45   28   48 1
    46   29   30 ar
    47   29   49 1
    48   30   31 ar
    49   30   33 1
    50   31   32 ar
    51   31   50 1
    52   32   51 1
    53   33   34 1
    54   33   35 1
    55   33   52 1
    56   34   53 1
    57   34   54 1
    58   34   55 1
    59   35   56 1
    60   35   57 1
    61   35   58 1
@<TRIPOS>MOLECULE
ZINC59104054
   64    69     0     0     0
SMALL
USER_CHARGES

@<TRIPOS>ATOM
      1 C1         -0.0184    1.5028    0.0103 C.3       1 <0>        -0.1199
      2 C2          0.0021   -0.0041    0.0020 C.ar      1 <0>        -0.0465
      3 C3          0.0057   -0.6883   -1.2001 C.ar      1 <0>        -0.1435
      4 C4          0.0244   -2.0708   -1.2123 C.ar      1 <0>        -0.0762
      5 C5          0.0391   -2.7734   -0.0233 C.ar      1 <0>        -0.1729
      6 C6          0.0355   -2.0895    1.1858 C.ar      1 <0>         0.1545
      7 C7          0.0228   -0.7000    1.1944 C.ar      1 <0>        -0.1541
      8 N1          0.0504   -2.7969    2.3903 N.pl3     1 <0>        -0.6213
      9 C8          0.0685   -4.1669    2.3800 C.2       1 <0>         0.3002
     10 C9          0.0828   -4.8534    3.5488 C.2       1 <0>        -0.3653
     11 C10         0.0766   -4.3622    4.8801 C.2       1 <0>         0.5691
     12 O1          0.0529   -3.1629    5.0923 O.2       1 <0>        -0.5151
     13 N2          0.0964   -5.2273    5.9001 N.am      1 <0>        -0.5824
     14 C11         0.1126   -6.5788    5.6060 C.2       1 <0>         0.3706
     15 N3          0.1225   -7.5177    6.5015 N.2       1 <0>        -0.4897
     16 C12         0.1166   -7.2979    7.8427 C.2       1 <0>         0.1457
     17 C13         0.1252   -6.0433    8.3268 C.2       1 <0>        -0.1607
     18 C14         0.1035   -4.8916    7.3505 C.3       1 <0>         0.2369
     19 H1         -0.7822   -4.2918    7.5598 H         1 <0>         0.0934
     20 C15         1.3121   -4.0329    7.6210 C.ar      1 <0>        -0.0878
     21 C16         2.5132   -4.3167    6.9980 C.ar      1 <0>        -0.0957
     22 C17         3.6247   -3.5320    7.2428 C.ar      1 <0>        -0.1672
     23 C18         3.5363   -2.4580    8.1138 C.ar      1 <0>         0.1055
     24 C19         2.3272   -2.1721    8.7405 C.ar      1 <0>         0.1053
     25 C20         1.2157   -2.9598    8.4870 C.ar      1 <0>        -0.1512
     26 O2          2.2354   -1.1191    9.5962 O.3       1 <0>        -0.3041
     27 C21         0.9630   -0.8853   10.2031 C.3       1 <0>         0.0251
     28 O3          4.6289   -1.6853    8.3560 O.3       1 <0>        -0.3050
     29 C22         5.8363   -2.0382    7.6780 C.3       1 <0>         0.0257
     30 C23         0.1852   -5.7835    9.8054 C.3       1 <0>        -0.0581
     31 C24        -0.6174   -6.8301   10.5742 C.3       1 <0>        -0.0791
     32 C25        -0.2288   -8.2143   10.1257 C.ar      1 <0>        -0.0671
     33 C26         0.1146   -8.4370    8.7939 C.ar      1 <0>        -0.0365
     34 C27         0.4539   -9.7171    8.3675 C.ar      1 <0>        -0.0793
     35 C28         0.4593  -10.7605    9.2726 C.ar      1 <0>        -0.1276
     36 C29         0.1294  -10.5329   10.5962 C.ar      1 <0>        -0.1080
     37 C30        -0.2143   -9.2619   11.0227 C.ar      1 <0>        -0.1198
     38 S1          0.1069   -6.6180    3.8247 S.3       1 <0>         0.1097
     39 H2          1.0042    1.8801    0.0026 H         1 <0>         0.0758
     40 H3         -0.5455    1.8639   -0.8728 H         1 <0>         0.0718
     41 H4         -0.5286    1.8543    0.9071 H         1 <0>         0.0692
     42 H5         -0.0065   -0.1413   -2.1313 H         1 <0>         0.1275
     43 H6          0.0272   -2.6019   -2.1527 H         1 <0>         0.1318
     44 H7          0.0530   -3.8533   -0.0336 H         1 <0>         0.1288
     45 H8          0.0249   -0.1651    2.1326 H         1 <0>         0.1286
     46 H9          0.0478   -2.3183    3.2340 H         1 <0>         0.4298
     47 H10         0.0713   -4.6999    1.4407 H         1 <0>         0.1783
     48 H11         2.5834   -5.1535    6.3189 H         1 <0>         0.1150
     49 H12         4.5620   -3.7563    6.7554 H         1 <0>         0.1359
     50 H13         0.2752   -2.7377    8.9692 H         1 <0>         0.1355
     51 H14         0.6709   -1.7606   10.7834 H         1 <0>         0.0551
     52 H15         1.0279   -0.0185   10.8608 H         1 <0>         0.1023
     53 H16         0.2196   -0.6986    9.4281 H         1 <0>         0.0548
     54 H17         6.6274   -1.3433    7.9595 H         1 <0>         0.1024
     55 H18         6.1265   -3.0513    7.9564 H         1 <0>         0.0553
     56 H19         5.6758   -1.9892    6.6010 H         1 <0>         0.0543
     57 H20         1.2242   -5.8167   10.1333 H         1 <0>         0.0839
     58 H21        -0.2239   -4.7947   10.0126 H         1 <0>         0.0794
     59 H22        -0.4181   -6.7266   11.6408 H         1 <0>         0.0868
     60 H23        -1.6808   -6.6762   10.3909 H         1 <0>         0.0811
     61 H24         0.7116   -9.8942    7.3337 H         1 <0>         0.1331
     62 H25         0.7212  -11.7560    8.9459 H         1 <0>         0.1255
     63 H26         0.1400  -11.3513   11.3008 H         1 <0>         0.1241
     64 H27        -0.4710   -9.0904   12.0576 H         1 <0>         0.1264
@<TRIPOS>BOND
     1    1    2 1
     2    1   39 1
     3    1   40 1
     4    1   41 1
     5    2    7 ar
     6    2    3 ar
     7    3    4 ar
     8    3   42 1
     9    4    5 ar
    10    4   43 1
    11    5    6 ar
    12    5   44 1
    13    6    7 ar
    14    6    8 1
    15    7   45 1
    16    8    9 1
    17    8   46 1
    18    9   10 2
    19    9   47 1
    20   10   38 1
    21   10   11 1
    22   11   12 2
    23   11   13 am
    24   13   18 1
    25   13   14 1
    26   14   15 2
    27   14   38 1
    28   15   16 1
    29   16   33 1
    30   16   17 2
    31   17   18 1
    32   17   30 1
    33   18   19 1
    34   18   20 1
    35   20   25 ar
    36   20   21 ar
    37   21   22 ar
    38   21   48 1
    39   22   23 ar
    40   22   49 1
    41   23   24 ar
    42   23   28 1
    43   24   25 ar
    44   24   26 1
    45   25   50 1
    46   26   27 1
    47   27   51 1
    48   27   52 1
    49   27   53 1
    50   28   29 1
    51   29   54 1
    52   29   55 1
    53   29   56 1
    54   30   31 1
    55   30   57 1
    56   30   58 1
    57   31   32 1
    58   31   59 1
    59   31   60 1
    60   32   37 ar
    61   32   33 ar
    62   33   34 ar
    63   34   35 ar
    64   34   61 1
    65   35   36 ar
    66   35   62 1
    67   36   37 ar
    68   36   63 1
    69   37   64 1
@<TRIPOS>MOLECULE
ZINC35010750
   36    37     0     0     0
SMALL
USER_CHARGES

@<TRIPOS>ATOM
      1 C1         -0.0187    1.5258    0.0104 C.3       1 <0>        -0.1810
      2 C2          0.0021   -0.0041    0.0020 C.3       1 <0>         0.0842
      3 H1         -1.0205   -0.3814    0.0098 H         1 <0>         0.1523
      4 C3          0.7309   -0.5033    1.2229 C.ar      1 <0>        -0.1904
      5 C4          2.0771   -0.8079    1.1475 C.ar      1 <0>        -0.0707
      6 C5          2.7469   -1.2653    2.2663 C.ar      1 <0>        -0.1469
      7 C6          2.0697   -1.4195    3.4645 C.ar      1 <0>         0.1636
      8 C7          0.7219   -1.1148    3.5412 C.ar      1 <0>        -0.1791
      9 C8          0.0533   -0.6512    2.4211 C.ar      1 <0>         0.1668
     10 F1         -1.2611   -0.3481    2.4960 F         1 <0>        -0.1160
     11 F2          2.7246   -1.8676    4.5580 F         1 <0>        -0.1124
     12 N1          0.6897   -0.4778   -1.2066 N.4       1 <0>        -0.5074
     13 C9         -0.0856   -0.0931   -2.3936 C.3       1 <0>         0.0440
     14 C10         0.6198   -0.5791   -3.6335 C.ar      1 <0>        -0.1618
     15 C11         1.5518    0.2286   -4.2582 C.ar      1 <0>        -0.0834
     16 C12         2.2015   -0.2126   -5.3958 C.ar      1 <0>        -0.1278
     17 C13         1.9196   -1.4672   -5.9121 C.ar      1 <0>         0.1228
     18 C14         0.9818   -2.2804   -5.2831 C.ar      1 <0>         0.0882
     19 C15         0.3377   -1.8339   -4.1404 C.ar      1 <0>        -0.1052
     20 O1          0.7017   -3.5125   -5.7860 O.3       1 <0>        -0.4802
     21 O2          2.5576   -1.9026   -7.0314 O.3       1 <0>        -0.4818
     22 H2          1.0039    1.9031    0.0027 H         1 <0>         0.0868
     23 H3         -0.5459    1.8868   -0.8726 H         1 <0>         0.0909
     24 H4         -0.5289    1.8773    0.9072 H         1 <0>         0.1089
     25 H5          2.6058   -0.6886    0.2133 H         1 <0>         0.1384
     26 H6          3.7987   -1.5030    2.2062 H         1 <0>         0.1579
     27 H7          0.1931   -1.2347    4.4752 H         1 <0>         0.1649
     28 H8          1.6080   -0.0627   -1.2556 H         1 <0>         0.4250
     29 H9         -1.0777   -0.5415   -2.3406 H         1 <0>         0.1430
     30 H10        -0.1790    0.9922   -2.4305 H         1 <0>         0.1453
     31 H11         1.7724    1.2067   -3.8568 H         1 <0>         0.1406
     32 H12         2.9286    0.4206   -5.8823 H         1 <0>         0.1482
     33 H13        -0.3878   -2.4646   -3.6481 H         1 <0>         0.1434
     34 H14         1.2594   -4.2183   -5.4311 H         1 <0>         0.3972
     35 H15         3.3810   -2.3779   -6.8551 H         1 <0>         0.4016
     36 H16         0.7761   -1.4825   -1.1724 H         1 <0>         0.4301
@<TRIPOS>BOND
     1    1    2 1
     2    1   22 1
     3    1   23 1
     4    1   24 1
     5    2    3 1
     6    2    4 1
     7    2   12 1
     8    4    9 ar
     9    4    5 ar
    10    5    6 ar
    11    5   25 1
    12    6    7 ar
    13    6   26 1
    14    7    8 ar
    15    7   11 1
    16    8    9 ar
    17    8   27 1
    18    9   10 1
    19   12   13 1
    20   12   28 1
    21   12   36 1
    22   13   14 1
    23   13   29 1
    24   13   30 1
    25   14   19 ar
    26   14   15 ar
    27   15   16 ar
    28   15   31 1
    29   16   17 ar
    30   16   32 1
    31   17   18 ar
    32   17   21 1
    33   18   19 ar
    34   18   20 1
    35   19   33 1
    36   20   34 1
    37   21   35 1
@<TRIPOS>MOLECULE
ZINC37622603
   43    43     0     0     0
SMALL
USER_CHARGES

@<TRIPOS>ATOM
      1 C1         -0.0187    1.5258    0.0104 C.3       1 <0>        -0.1591
      2 C2          0.0021   -0.0041    0.0020 C.3       1 <0>        -0.1383
      3 C3          0.7182   -0.4975   -1.2568 C.3       1 <0>        -0.1310
      4 C4          0.7390   -2.0273   -1.2652 C.3       1 <0>         0.0487
      5 C5          1.4790   -2.5342   -0.0257 C.3       1 <0>        -0.1780
      6 C6          1.4443   -2.5133   -2.5051 C.2       1 <0>         0.5023
      7 O1          2.2585   -1.8038   -3.0571 O.2       1 <0>        -0.4687
      8 N1          1.1704   -3.7364   -3.0006 N.am      1 <0>        -0.7242
      9 C7          1.8561   -4.2089   -4.2059 C.3       1 <0>         0.1379
     10 C8          1.1161   -3.7020   -5.4454 C.3       1 <0>        -0.1243
     11 C9          1.8323   -4.1955   -6.7042 C.3       1 <0>        -0.1201
     12 C10         1.8530   -5.7253   -6.7126 C.3       1 <0>        -0.1344
     13 C11         2.5930   -6.2321   -5.4731 C.3       1 <0>        -0.1194
     14 C12         1.8769   -5.7387   -4.2143 C.3       1 <0>        -0.1221
     15 C13         2.5692   -6.2187   -7.9714 C.3       1 <0>         0.4531
     16 F1          3.8817   -5.7345   -7.9814 F         1 <0>        -0.1800
     17 F2          2.5881   -7.6176   -7.9791 F         1 <0>        -0.1806
     18 F3          1.8925   -5.7553   -9.1048 F         1 <0>        -0.1806
     19 N2         -0.6392   -2.5358   -1.2548 N.4       1 <0>        -0.6344
     20 H1          1.0039    1.9031    0.0027 H         1 <0>         0.0672
     21 H2         -0.5459    1.8868   -0.8726 H         1 <0>         0.0622
     22 H3         -0.5289    1.8773    0.9072 H         1 <0>         0.0692
     23 H4          0.5293   -0.3651    0.8851 H         1 <0>         0.0839
     24 H5         -1.0205   -0.3814    0.0098 H         1 <0>         0.0576
     25 H6          0.1910   -0.1364   -2.1398 H         1 <0>         0.0955
     26 H7          1.7408   -0.1202   -1.2645 H         1 <0>         0.1253
     27 H8          0.9688   -2.1826    0.8711 H         1 <0>         0.1024
     28 H9          1.4937   -3.6240   -0.0317 H         1 <0>         0.0883
     29 H10         2.5015   -2.1569   -0.0334 H         1 <0>         0.1165
     30 H11         0.5193   -4.3039   -2.5591 H         1 <0>         0.3923
     31 H12         2.8787   -3.8316   -4.2136 H         1 <0>         0.1042
     32 H13         0.0936   -4.0793   -5.4377 H         1 <0>         0.0721
     33 H14         1.1014   -2.6122   -5.4394 H         1 <0>         0.0784
     34 H15         1.3051   -3.8344   -7.5873 H         1 <0>         0.0880
     35 H16         2.8549   -3.8182   -6.7119 H         1 <0>         0.0845
     36 H17         0.8304   -6.1026   -6.7049 H         1 <0>         0.1175
     37 H18         2.6078   -7.3220   -5.4791 H         1 <0>         0.0907
     38 H19         3.6156   -5.8548   -5.4808 H         1 <0>         0.0852
     39 H20         2.4041   -6.0998   -3.3312 H         1 <0>         0.0833
     40 H21         0.8543   -6.1160   -4.2066 H         1 <0>         0.0764
     41 H22        -1.1272   -2.2015   -2.0722 H         1 <0>         0.4399
     42 H23        -0.6255   -3.5447   -1.2603 H         1 <0>         0.4305
     43 H24        -1.1115   -2.2104   -0.4246 H         1 <0>         0.4421
@<TRIPOS>BOND
     1    1    2 1
     2    1   20 1
     3    1   21 1
     4    1   22 1
     5    2    3 1
     6    2   23 1
     7    2   24 1
     8    3    4 1
     9    3   25 1
    10    3   26 1
    11    4    5 1
    12    4    6 1
    13    4   19 1
    14    5   27 1
    15    5   28 1
    16    5   29 1
    17    6    7 2
    18    6    8 am
    19    8    9 1
    20    8   30 1
    21    9   14 1
    22    9   10 1
    23    9   31 1
    24   10   11 1
    25   10   32 1
    26   10   33 1
    27   11   12 1
    28   11   34 1
    29   11   35 1
    30   12   13 1
    31   12   15 1
    32   12   36 1
    33   13   14 1
    34   13   37 1
    35   13   38 1
    36   14   39 1
    37   14   40 1
    38   15   16 1
    39   15   17 1
    40   15   18 1
    41   19   41 1
    42   19   42 1
    43   19   43 1
@<TRIPOS>MOLECULE
ZINC36276325
   53    55     0     0     0
SMALL
USER_CHARGES

@<TRIPOS>ATOM
      1 C1         -0.0188    1.5315    0.0105 C.3       1 <0>        -0.1404
      2 C2          0.0021   -0.0041    0.0020 C.3       1 <0>        -0.0663
      3 C3          0.7092   -0.5793   -1.2558 C.3       1 <0>        -0.1346
      4 C4          0.0746   -1.9984   -1.2753 C.3       1 <0>         0.0385
      5 H1          0.2247   -2.4770   -2.2576 H         1 <0>         0.1506
      6 C5          0.6989   -2.7991   -0.1495 C.3       1 <0>        -0.1388
      7 C6          0.8805   -2.0987    1.1788 C.3       1 <0>        -0.0619
      8 C7          0.7268   -0.5914    1.2133 C.3       1 <0>        -0.1135
      9 C8          2.3172   -2.4180    1.6692 C.3       1 <0>        -0.1522
     10 C9         -0.0687   -2.7240    2.2190 C.3       1 <0>        -0.1561
     11 N1         -1.3552   -1.7140   -1.0395 N.4       1 <0>        -0.3840
     12 C10        -1.4180   -0.6112   -0.0621 C.3       1 <0>        -0.0101
     13 C11        -2.1119   -2.8755   -0.5886 C.3       1 <0>        -0.0125
     14 C12        -3.5951   -2.5123   -0.4932 C.3       1 <0>        -0.1749
     15 C13        -4.3892   -3.7314   -0.0200 C.3       1 <0>         0.1599
     16 H2         -3.9700   -4.0966    0.9176 H         1 <0>         0.1142
     17 C14        -5.8294   -3.3414    0.1919 C.ar      1 <0>        -0.0830
     18 C15        -6.7118   -3.3521   -0.8731 C.ar      1 <0>        -0.1723
     19 C16        -8.0338   -2.9946   -0.6832 C.ar      1 <0>        -0.0624
     20 C17        -8.4778   -2.6258    0.5717 C.ar      1 <0>        -0.1899
     21 C18        -7.5945   -2.6144    1.6434 C.ar      1 <0>         0.2240
     22 C19        -6.2679   -2.9792    1.4501 C.ar      1 <0>        -0.1912
     23 N2         -8.0400   -2.2420    2.9137 N.pl3     1 <0>        -0.8750
     24 O1         -4.3150   -4.7611   -1.0080 O.3       1 <0>        -0.5496
     25 H3          1.0038    1.9088    0.0027 H         1 <0>         0.0782
     26 H4         -0.5459    1.8926   -0.8726 H         1 <0>         0.0693
     27 H5         -0.5289    1.8831    0.9073 H         1 <0>         0.0720
     28 H6          0.4471   -0.0187   -2.1514 H         1 <0>         0.0980
     29 H7          1.7876   -0.6311   -1.1189 H         1 <0>         0.1189
     30 H8          0.1730   -3.7505    0.0054 H         1 <0>         0.0916
     31 H9          1.7130   -3.1179   -0.4910 H         1 <0>         0.1060
     32 H10         1.7235   -0.1299    1.2884 H         1 <0>         0.0848
     33 H11         0.1816   -0.3060    2.1262 H         1 <0>         0.0790
     34 H12         3.0399   -2.0524    0.9397 H         1 <0>         0.0609
     35 H13         2.4906   -1.9301    2.6284 H         1 <0>         0.0647
     36 H14         2.4307   -3.4960    1.7842 H         1 <0>         0.0623
     37 H15         0.1621   -3.7834    2.3309 H         1 <0>         0.0673
     38 H16         0.0603   -2.2209    3.1773 H         1 <0>         0.0700
     39 H17        -1.0999   -2.6101    1.8848 H         1 <0>         0.0469
     40 H18        -1.7274   -0.9772    0.9119 H         1 <0>         0.1308
     41 H19        -2.1258    0.1456   -0.4105 H         1 <0>         0.1284
     42 H20        -1.9826   -3.6917   -1.2995 H         1 <0>         0.1366
     43 H21        -1.7502   -3.1867    0.3915 H         1 <0>         0.1316
     44 H22        -3.7243   -1.6962    0.2177 H         1 <0>         0.0969
     45 H23        -3.9567   -2.2012   -1.4732 H         1 <0>         0.0926
     46 H24        -6.3673   -3.6401   -1.8553 H         1 <0>         0.1166
     47 H25        -8.7201   -3.0033   -1.5171 H         1 <0>         0.1269
     48 H26        -9.5105   -2.3463    0.7192 H         1 <0>         0.1249
     49 H27        -5.5794   -2.9753    2.2822 H         1 <0>         0.1199
     50 H28        -8.9673   -1.9910    3.0482 H         1 <0>         0.4031
     51 H29        -7.4222   -2.2344    3.6615 H         1 <0>         0.4001
     52 H30        -4.6712   -4.5056   -1.8699 H         1 <0>         0.3805
     53 H31        -1.7628   -1.3800   -1.9154 H         1 <0>         0.4226
@<TRIPOS>BOND
     1    1    2 1
     2    1   25 1
     3    1   26 1
     4    1   27 1
     5    2    8 1
     6    2   12 1
     7    2    3 1
     8    3    4 1
     9    3   28 1
    10    3   29 1
    11    4    5 1
    12    4    6 1
    13    4   11 1
    14    6    7 1
    15    6   30 1
    16    6   31 1
    17    7    8 1
    18    7    9 1
    19    7   10 1
    20    8   32 1
    21    8   33 1
    22    9   34 1
    23    9   35 1
    24    9   36 1
    25   10   37 1
    26   10   38 1
    27   10   39 1
    28   11   12 1
    29   11   13 1
    30   11   53 1
    31   12   40 1
    32   12   41 1
    33   13   14 1
    34   13   42 1
    35   13   43 1
    36   14   15 1
    37   14   44 1
    38   14   45 1
    39   15   16 1
    40   15   17 1
    41   15   24 1
    42   17   22 ar
    43   17   18 ar
    44   18   19 ar
    45   18   46 1
    46   19   20 ar
    47   19   47 1
    48   20   21 ar
    49   20   48 1
    50   21   22 ar
    51   21   23 1
    52   22   49 1
    53   23   50 1
    54   23   51 1
    55   24   52 1
@<TRIPOS>MOLECULE
ZINC48786678
   38    39     0     0     0
SMALL
USER_CHARGES

@<TRIPOS>ATOM
      1 C1         -0.0184    1.5028    0.0103 C.3       1 <0>        -0.1193
      2 C2          0.0021   -0.0041    0.0020 C.ar      1 <0>        -0.0800
      3 C3          0.0057   -0.6887   -1.1989 C.ar      1 <0>        -0.1022
      4 C4          0.0245   -2.0708   -1.2065 C.ar      1 <0>        -0.0800
      5 C5          0.0400   -2.7685   -0.0132 C.ar      1 <0>        -0.0992
      6 C6          0.0373   -2.0839    1.1877 C.ar      1 <0>        -0.1036
      7 C7          0.0229   -0.7016    1.1953 C.ar      1 <0>        -0.0992
      8 C8          0.0537   -2.8444    2.4887 C.3       1 <0>         0.0973
      9 O1          1.4060   -3.0674    2.8930 O.3       1 <0>        -0.2766
     10 C9          1.5985   -3.7443    4.0539 C.ar      1 <0>         0.2153
     11 C10         0.5048   -4.1899    4.7859 C.ar      1 <0>        -0.2013
     12 C11         0.6959   -4.8770    5.9643 C.ar      1 <0>        -0.0065
     13 C12         1.9912   -5.1265    6.4235 C.ar      1 <0>        -0.1938
     14 C13         3.0886   -4.6779    5.6855 C.ar      1 <0>        -0.0115
     15 C14         2.8898   -3.9950    4.5046 C.ar      1 <0>        -0.0791
     16 Cl1         4.2529   -3.4418    3.5828 Cl        1 <0>        -0.0117
     17 C15         2.1997   -5.8629    7.6873 C.cat     1 <0>         0.6069
     18 N1          3.4361   -6.1000    8.1240 N.pl3     1 <0>        -0.7637
     19 N2          1.1515   -6.2898    8.3904 N.pl3     1 <0>        -0.7639
     20 C16         0.0274   -2.8172   -2.5157 C.3       1 <0>        -0.1193
     21 H1          1.0042    1.8801    0.0026 H         1 <0>         0.0746
     22 H2         -0.5455    1.8639   -0.8728 H         1 <0>         0.0711
     23 H3         -0.5286    1.8543    0.9071 H         1 <0>         0.0687
     24 H4         -0.0064   -0.1436   -2.1312 H         1 <0>         0.1282
     25 H5          0.0540   -3.8484   -0.0191 H         1 <0>         0.1239
     26 H6          0.0245   -0.1667    2.1335 H         1 <0>         0.1239
     27 H7         -0.4637   -2.2661    3.2541 H         1 <0>         0.0846
     28 H8         -0.4485   -3.8026    2.3557 H         1 <0>         0.0846
     29 H9         -0.4966   -3.9969    4.4306 H         1 <0>         0.1619
     30 H10        -0.1550   -5.2223    6.5327 H         1 <0>         0.1469
     31 H11         4.0916   -4.8686    6.0377 H         1 <0>         0.1527
     32 H12         4.1992   -5.7892    7.6121 H         1 <0>         0.4438
     33 H13         0.2515   -6.1172    8.0725 H         1 <0>         0.4433
     34 H14         1.2885   -6.7732    9.2201 H         1 <0>         0.4343
     35 H15         1.0557   -2.9831   -2.8370 H         1 <0>         0.0746
     36 H16        -0.4727   -3.7772   -2.3878 H         1 <0>         0.0687
     37 H17        -0.4985   -2.2310   -3.2693 H         1 <0>         0.0711
     38 H18         3.5730   -6.5834    8.9537 H         1 <0>         0.4343
@<TRIPOS>BOND
     1    1    2 1
     2    1   21 1
     3    1   22 1
     4    1   23 1
     5    2    7 ar
     6    2    3 ar
     7    3    4 ar
     8    3   24 1
     9    4    5 ar
    10    4   20 1
    11    5    6 ar
    12    5   25 1
    13    6    7 ar
    14    6    8 1
    15    7   26 1
    16    8    9 1
    17    8   27 1
    18    8   28 1
    19    9   10 1
    20   10   15 ar
    21   10   11 ar
    22   11   12 ar
    23   11   29 1
    24   12   13 ar
    25   12   30 1
    26   13   14 ar
    27   13   17 1
    28   14   15 ar
    29   14   31 1
    30   15   16 1
    31   17   18 2
    32   17   19 1
    33   18   32 1
    34   18   38 1
    35   19   33 1
    36   19   34 1
    37   20   35 1
    38   20   36 1
    39   20   37 1
@<TRIPOS>MOLECULE
ZINC55161069
   53    54     0     0     0
SMALL
USER_CHARGES

@<TRIPOS>ATOM
      1 C1         -0.0187    1.5258    0.0104 C.3       1 <0>        -0.1561
      2 C2          0.0021   -0.0041    0.0020 C.3       1 <0>        -0.1215
      3 C3         -1.4333   -0.5336    0.0129 C.3       1 <0>        -0.0879
      4 C4         -2.1352   -0.1312   -1.2857 C.3       1 <0>        -0.1162
      5 C5         -3.5706   -0.6608   -1.2748 C.3       1 <0>        -0.1115
      6 C6         -3.5506   -2.1862   -1.1575 C.3       1 <0>        -0.1003
      7 C7         -2.8486   -2.5886    0.1411 C.3       1 <0>        -0.1120
      8 C8         -1.4133   -2.0590    0.1302 C.3       1 <0>        -0.1164
      9 C9         -4.9859   -2.7157   -1.1466 C.3       1 <0>         0.1223
     10 N1         -4.9661   -4.1806   -1.1547 N.am      1 <0>        -0.7225
     11 C10        -6.1240   -4.8703   -1.1473 C.2       1 <0>         0.5212
     12 O1         -7.1824   -4.2782   -1.1340 O.2       1 <0>        -0.5496
     13 C11        -6.1035   -6.3771   -1.1556 C.3       1 <0>        -0.1116
     14 H1         -5.5933   -6.7286   -2.0524 H         1 <0>         0.1086
     15 C12        -5.3635   -6.8840    0.0839 C.3       1 <0>        -0.1159
     16 C13        -6.0797   -6.3905    1.3427 C.3       1 <0>        -0.1231
     17 C14        -7.5151   -6.9201    1.3536 C.3       1 <0>        -0.1288
     18 C15        -8.2551   -6.4133    0.1141 C.3       1 <0>        -0.1325
     19 H2         -8.2698   -5.3234    0.1200 H         1 <0>         0.1243
     20 C16        -7.5389   -6.9067   -1.1447 C.3       1 <0>        -0.0890
     21 C17        -9.6904   -6.9429    0.1249 C.3       1 <0>        -0.0036
     22 N2        -10.4139   -6.3732    1.2695 N.4       1 <0>        -0.6381
     23 H3          1.0039    1.9031    0.0027 H         1 <0>         0.0548
     24 H4         -0.5459    1.8868   -0.8726 H         1 <0>         0.0564
     25 H5         -0.5289    1.8773    0.9072 H         1 <0>         0.0532
     26 H6          0.5123   -0.3556   -0.8948 H         1 <0>         0.0617
     27 H7          0.5293   -0.3651    0.8851 H         1 <0>         0.0616
     28 H8         -1.9701   -0.1109    0.8621 H         1 <0>         0.0694
     29 H9         -2.1495    0.9555   -1.3693 H         1 <0>         0.0691
     30 H10        -1.5984   -0.5539   -2.1349 H         1 <0>         0.0633
     31 H11        -4.1074   -0.2381   -0.4256 H         1 <0>         0.0651
     32 H12        -4.0707   -0.3741   -2.1999 H         1 <0>         0.0659
     33 H13        -3.0137   -2.6089   -2.0067 H         1 <0>         0.0785
     34 H14        -3.3855   -2.1659    0.9903 H         1 <0>         0.0636
     35 H15        -2.8344   -3.6753    0.2247 H         1 <0>         0.0579
     36 H16        -0.8764   -2.4817   -0.7190 H         1 <0>         0.0633
     37 H17        -0.9132   -2.3457    1.0553 H         1 <0>         0.0639
     38 H18        -5.4961   -2.3642   -0.2498 H         1 <0>         0.0684
     39 H19        -5.5131   -2.3547   -2.0297 H         1 <0>         0.0703
     40 H20        -4.1196   -4.6541   -1.1653 H         1 <0>         0.4031
     41 H21        -5.3488   -7.9738    0.0779 H         1 <0>         0.0821
     42 H22        -4.3410   -6.5067    0.0762 H         1 <0>         0.0750
     43 H23        -5.5525   -6.7516    2.2258 H         1 <0>         0.0774
     44 H24        -6.0945   -5.3007    1.3487 H         1 <0>         0.0667
     45 H25        -7.5003   -8.0100    1.3476 H         1 <0>         0.0784
     46 H26        -8.0253   -6.5686    2.2504 H         1 <0>         0.0574
     47 H27        -8.0661   -6.5456   -2.0278 H         1 <0>         0.0815
     48 H28        -7.5241   -7.9966   -1.1507 H         1 <0>         0.0810
     49 H29       -10.1905   -6.6562   -0.8002 H         1 <0>         0.1350
     50 H30        -9.6762   -8.0296    0.2085 H         1 <0>         0.1315
     51 H31        -9.9510   -6.6386    2.1258 H         1 <0>         0.4314
     52 H32       -10.4271   -5.3672    1.1921 H         1 <0>         0.4364
     53 H33       -11.3605   -6.7224    1.2766 H         1 <0>         0.4371
@<TRIPOS>BOND
     1    1    2 1
     2    1   23 1
     3    1   24 1
     4    1   25 1
     5    2    3 1
     6    2   26 1
     7    2   27 1
     8    3    8 1
     9    3    4 1
    10    3   28 1
    11    4    5 1
    12    4   29 1
    13    4   30 1
    14    5    6 1
    15    5   31 1
    16    5   32 1
    17    6    7 1
    18    6    9 1
    19    6   33 1
    20    7    8 1
    21    7   34 1
    22    7   35 1
    23    8   36 1
    24    8   37 1
    25    9   10 1
    26    9   38 1
    27    9   39 1
    28   10   11 am
    29   10   40 1
    30   11   12 2
    31   11   13 1
    32   13   14 1
    33   13   20 1
    34   13   15 1
    35   15   16 1
    36   15   41 1
    37   15   42 1
    38   16   17 1
    39   16   43 1
    40   16   44 1
    41   17   18 1
    42   17   45 1
    43   17   46 1
    44   18   19 1
    45   18   20 1
    46   18   21 1
    47   20   47 1
    48   20   48 1
    49   21   22 1
    50   21   49 1
    51   21   50 1
    52   22   51 1
    53   22   52 1
    54   22   53 1
@<TRIPOS>MOLECULE
ZINC36264009
   27    28     0     0     0
SMALL
USER_CHARGES

@<TRIPOS>ATOM
      1 C1          0.3920    1.7539    0.5614 C.ar      1 <0>        -0.0242
      2 C2          0.3803    0.7457   -0.3842 C.ar      1 <0>        -0.0985
      3 C3          1.4957   -0.0537   -0.5566 C.ar      1 <0>         0.0003
      4 C4          2.6232    0.1557    0.2175 C.ar      1 <0>        -0.6621
      5 C5          2.6350    1.1639    1.1624 C.ar      1 <0>         0.0096
      6 C6          1.5191    1.9632    1.3352 C.ar      1 <0>        -0.1024
      7 Br1         1.5352    3.3428    2.6284 Br        1 <0>        -0.0074
      8 S1          4.0438   -0.8635   -0.0013 S.o2      1 <0>         2.6836
      9 O1          5.0356   -0.3747    0.8913 O.2       1 <0>        -0.9291
     10 O2          3.5871   -2.2087    0.0299 O.2       1 <0>        -0.9081
     11 N1          4.6104   -0.5913   -1.5333 N.pl3     1 <0>        -1.0805
     12 C7          5.1190    0.7322   -1.9019 C.3       1 <0>         0.1151
     13 H1          5.1029    1.4796   -1.1087 H         1 <0>         0.1608
     14 C8          6.2727    0.7914   -2.9050 C.3       1 <0>        -0.1482
     15 C9          4.8646    1.2138   -3.3317 C.3       1 <0>        -0.0975
     16 H2          4.3188    0.5459   -3.9981 H         1 <0>         0.1853
     17 N2          4.6178    2.6482   -3.5304 N.4       1 <0>        -0.6066
     18 Br2         1.4796   -1.4333   -1.8497 Br        1 <0>        -0.0033
     19 H3         -0.4774    2.3810    0.6928 H         1 <0>         0.1573
     20 H4         -0.4999    0.5820   -0.9882 H         1 <0>         0.1573
     21 H5          3.5150    1.3271    1.7669 H         1 <0>         0.1653
     22 H6          4.6055   -1.3083   -2.1867 H         1 <0>         0.4328
     23 H7          7.0154    1.5781   -2.7721 H         1 <0>         0.1388
     24 H8          6.6533   -0.1543   -3.2908 H         1 <0>         0.1440
     25 H9          5.4168    3.1745   -3.2100 H         1 <0>         0.4362
     26 H10         4.4662    2.8306   -4.5112 H         1 <0>         0.4442
     27 H11         3.8009    2.9247   -3.0067 H         1 <0>         0.4374
@<TRIPOS>BOND
     1    1    6 ar
     2    1    2 ar
     3    1   19 1
     4    2    3 ar
     5    2   20 1
     6    3    4 ar
     7    3   18 1
     8    4    5 ar
     9    4    8 1
    10    5    6 ar
    11    5   21 1
    12    6    7 1
    13    8    9 2
    14    8   10 2
    15    8   11 1
    16   11   12 1
    17   11   22 1
    18   12   13 1
    19   12   15 1
    20   12   14 1
    21   14   15 1
    22   14   23 1
    23   14   24 1
    24   15   16 1
    25   15   17 1
    26   17   25 1
    27   17   26 1
    28   17   27 1
@<TRIPOS>MOLECULE
ZINC38050187
   36    37     0     0     0
SMALL
USER_CHARGES

@<TRIPOS>ATOM
      1 C1         -0.0167    1.3778    0.0096 C.ar      1 <0>        -0.1264
      2 C2          1.1711    2.0855    0.0021 C.ar      1 <0>        -0.0149
      3 C3          2.3776    1.4114   -0.0135 C.ar      1 <0>        -0.6911
      4 C4          2.3973    0.0292   -0.0216 C.ar      1 <0>        -0.0036
      5 C5          1.2095   -0.6792   -0.0136 C.ar      1 <0>        -0.1143
      6 C6          0.0021   -0.0041    0.0020 C.ar      1 <0>        -0.0287
      7 Br1         1.2358   -2.5700   -0.0253 Br        1 <0>        -0.0158
      8 S1          3.8908    2.3140   -0.0237 S.o2      1 <0>         2.6865
      9 O1          4.8720    1.4555   -0.5890 O.2       1 <0>        -0.9278
     10 O2          3.5963    3.5945   -0.5648 O.2       1 <0>        -0.9310
     11 N1          4.3271    2.5563    1.5553 N.pl3     1 <0>        -1.1296
     12 C7          4.6707    1.4128    2.4041 C.3       1 <0>         0.1359
     13 H1          4.1829    0.5164    2.0210 H         1 <0>         0.1103
     14 C8          6.1872    1.2104    2.3978 C.3       1 <0>        -0.1384
     15 C9          6.8718    2.4686    2.9355 C.3       1 <0>        -0.1309
     16 C10         6.3988    2.7348    4.3660 C.3       1 <0>        -0.1191
     17 C11         4.8822    2.9372    4.3723 C.3       1 <0>        -0.1424
     18 C12         4.1976    1.6790    3.8345 C.3       1 <0>         0.0210
     19 H2          4.4532    0.8281    4.4660 H         1 <0>         0.1612
     20 N2          2.7415    1.8733    3.8406 N.4       1 <0>        -0.6397
     21 H3         -0.9592    1.9049    0.0260 H         1 <0>         0.1502
     22 H4          1.1560    3.1654    0.0080 H         1 <0>         0.1520
     23 H5          3.3402   -0.4974   -0.0346 H         1 <0>         0.1540
     24 H6         -0.9257   -0.5568    0.0083 H         1 <0>         0.1490
     25 H7          4.3551    3.4554    1.9182 H         1 <0>         0.4237
     26 H8          6.4429    0.3596    3.0293 H         1 <0>         0.0905
     27 H9          6.5242    1.0207    1.3787 H         1 <0>         0.1033
     28 H10         7.9523    2.3244    2.9310 H         1 <0>         0.0852
     29 H11         6.6162    3.3194    2.3040 H         1 <0>         0.0722
     30 H12         6.6544    1.8839    4.9975 H         1 <0>         0.0791
     31 H13         6.8865    3.6311    4.7491 H         1 <0>         0.0887
     32 H14         4.5452    3.1268    5.3914 H         1 <0>         0.0960
     33 H15         4.6266    3.7880    3.7408 H         1 <0>         0.0875
     34 H16         2.2900    1.0435    3.4859 H         1 <0>         0.4356
     35 H17         2.4295    2.0488    4.7839 H         1 <0>         0.4410
     36 H18         2.5049    2.6609    3.2560 H         1 <0>         0.4305
@<TRIPOS>BOND
     1    1    6 ar
     2    1    2 ar
     3    1   21 1
     4    2    3 ar
     5    2   22 1
     6    3    4 ar
     7    3    8 1
     8    4    5 ar
     9    4   23 1
    10    5    6 ar
    11    5    7 1
    12    6   24 1
    13    8    9 2
    14    8   10 2
    15    8   11 1
    16   11   12 1
    17   11   25 1
    18   12   13 1
    19   12   18 1
    20   12   14 1
    21   14   15 1
    22   14   26 1
    23   14   27 1
    24   15   16 1
    25   15   28 1
    26   15   29 1
    27   16   17 1
    28   16   30 1
    29   16   31 1
    30   17   18 1
    31   17   32 1
    32   17   33 1
    33   18   19 1
    34   18   20 1
    35   20   34 1
    36   20   35 1
    37   20   36 1
@<TRIPOS>MOLECULE
ZINC45069709
   35    35     0     0     0
SMALL
USER_CHARGES

@<TRIPOS>ATOM
      1 C1         -0.0187    1.5258    0.0104 C.3       1 <0>        -0.1840
      2 C2          0.0021   -0.0041    0.0020 C.3       1 <0>         0.0779
      3 H1         -1.0205   -0.3814    0.0098 H         1 <0>         0.1586
      4 C3          0.7074   -0.4901   -1.2379 C.ar      1 <0>        -0.0992
      5 C4          2.0243   -0.9043   -1.1659 C.ar      1 <0>        -0.1480
      6 C5          2.6724   -1.3507   -2.3044 C.ar      1 <0>         0.1414
      7 C6          2.0004   -1.3825   -3.5160 C.ar      1 <0>        -0.0499
      8 C7          0.6831   -0.9683   -3.5862 C.ar      1 <0>        -0.0548
      9 C8          0.0351   -0.5268   -2.4462 C.ar      1 <0>        -0.0172
     10 Cl1        -1.6207   -0.0125   -2.5336 Cl        1 <0>        -0.0191
     11 Cl2         2.8123   -1.9417   -4.9450 Cl        1 <0>         0.0002
     12 F1          3.9597   -1.7548   -2.2347 F         1 <0>        -0.1041
     13 N1          0.7126   -0.4907    1.1921 N.4       1 <0>        -0.5126
     14 C9         -0.0398   -0.1189    2.3978 C.3       1 <0>        -0.0060
     15 C10         0.7001   -0.6257    3.6373 C.3       1 <0>        -0.1426
     16 C11        -0.0835   -0.2384    4.8930 C.3       1 <0>        -0.6409
     17 S1          0.7938   -0.8393    6.3626 S.o2      1 <0>         2.6222
     18 O1          0.7669   -2.2595    6.4021 O.2       1 <0>        -0.9505
     19 O2          2.0161   -0.1331    6.5258 O.2       1 <0>        -0.9474
     20 N2         -0.1434   -0.3632    7.6421 N.pl3     1 <0>        -1.2453
     21 H2          1.0039    1.9031    0.0027 H         1 <0>         0.0903
     22 H3         -0.5459    1.8868   -0.8726 H         1 <0>         0.1126
     23 H4         -0.5289    1.8773    0.9072 H         1 <0>         0.0942
     24 H5          2.5474   -0.8792   -0.2214 H         1 <0>         0.1495
     25 H6          0.1589   -0.9929   -4.5301 H         1 <0>         0.1705
     26 H7          0.7982   -1.4950    1.1455 H         1 <0>         0.4343
     27 H8         -0.1324    0.9660    2.4481 H         1 <0>         0.1435
     28 H9         -1.0328   -0.5668    2.3589 H         1 <0>         0.1425
     29 H10         0.7927   -1.7106    3.5869 H         1 <0>         0.1078
     30 H11         1.6931   -0.1778    3.6761 H         1 <0>         0.1073
     31 H12        -0.1760    0.8465    4.9434 H         1 <0>         0.1461
     32 H13        -1.0765   -0.6864    4.8542 H         1 <0>         0.1488
     33 H14        -0.1568   -0.8905    8.4562 H         1 <0>         0.4284
     34 H15        -0.6790    0.4429    7.5775 H         1 <0>         0.4163
     35 H16         1.6317   -0.0761    1.2281 H         1 <0>         0.4293
@<TRIPOS>BOND
     1    1    2 1
     2    1   21 1
     3    1   22 1
     4    1   23 1
     5    2    3 1
     6    2    4 1
     7    2   13 1
     8    4    9 ar
     9    4    5 ar
    10    5    6 ar
    11    5   24 1
    12    6    7 ar
    13    6   12 1
    14    7    8 ar
    15    7   11 1
    16    8    9 ar
    17    8   25 1
    18    9   10 1
    19   13   14 1
    20   13   26 1
    21   13   35 1
    22   14   15 1
    23   14   27 1
    24   14   28 1
    25   15   16 1
    26   15   29 1
    27   15   30 1
    28   16   17 1
    29   16   31 1
    30   16   32 1
    31   17   18 2
    32   17   19 2
    33   17   20 1
    34   20   33 1
    35   20   34 1
@<TRIPOS>MOLECULE
ZINC52013935
   43    44     0     0     0
SMALL
USER_CHARGES

@<TRIPOS>ATOM
      1 C1         -0.0167    1.3781    0.0096 C.ar      1 <0>        -0.0688
      2 C2          1.1696    2.0865    0.0021 C.ar      1 <0>        -0.1288
      3 C3          2.3805    1.4099   -0.0131 C.ar      1 <0>         0.1259
      4 C4          2.3976    0.0227   -0.0208 C.ar      1 <0>        -0.1836
      5 C5          1.2085   -0.6817   -0.0132 C.ar      1 <0>        -0.0536
      6 C6          0.0021   -0.0041    0.0020 C.ar      1 <0>        -0.1191
      7 Br1         1.2302   -2.5726   -0.0242 Br        1 <0>        -0.0356
      8 O1          3.5483    2.1050   -0.0210 O.3       1 <0>        -0.2968
      9 C7          4.7569    1.3426   -0.0366 C.3       1 <0>         0.0271
     10 C8          5.9578    2.2906   -0.0435 C.3       1 <0>         0.0881
     11 H1          5.8860    2.9741    0.8025 H         1 <0>         0.1358
     12 C9          7.2496    1.4781    0.0655 C.3       1 <0>        -0.0465
     13 N1          8.3945    2.3915    0.1794 N.4       1 <0>        -0.4985
     14 C10         9.6348    1.6113    0.2841 C.3       1 <0>         0.0357
     15 H2          9.7066    0.9278   -0.5620 H         1 <0>         0.1486
     16 C11         9.6249    0.8102    1.5875 C.3       1 <0>        -0.1393
     17 C12        10.9167   -0.0023    1.6966 C.3       1 <0>        -0.1171
     18 C13        12.1176    0.9457    1.6897 C.3       1 <0>        -0.1275
     19 C14        12.1275    1.7468    0.3862 C.3       1 <0>        -0.1514
     20 C15        10.8357    2.5593    0.2772 C.3       1 <0>         0.0889
     21 H3         10.8427    3.1300   -0.6515 H         1 <0>         0.0813
     22 O2         10.7415    3.4554    1.3863 O.3       1 <0>        -0.5710
     23 O3          5.9670    3.0388   -1.2610 O.3       1 <0>        -0.5421
     24 H4         -0.9594    1.9047    0.0260 H         1 <0>         0.1459
     25 H5          1.1540    3.1664    0.0077 H         1 <0>         0.1411
     26 H6          3.3391   -0.5062   -0.0330 H         1 <0>         0.1339
     27 H7         -0.9263   -0.5559    0.0083 H         1 <0>         0.1404
     28 H8          4.7987    0.7097    0.8498 H         1 <0>         0.0832
     29 H9          4.7814    0.7187   -0.9300 H         1 <0>         0.0787
     30 H10         7.2043    0.8404    0.9484 H         1 <0>         0.1473
     31 H11         7.3657    0.8591   -0.8242 H         1 <0>         0.1405
     32 H12         8.4364    2.9817   -0.6379 H         1 <0>         0.4320
     33 H13         9.5531    1.4937    2.4336 H         1 <0>         0.0976
     34 H14         8.7694    0.1349    1.5925 H         1 <0>         0.0850
     35 H15        10.9097   -0.5730    2.6252 H         1 <0>         0.0867
     36 H16        10.9885   -0.6858    0.8506 H         1 <0>         0.0733
     37 H17        12.0458    1.6292    2.5357 H         1 <0>         0.0777
     38 H18        13.0379    0.3668    1.7673 H         1 <0>         0.0793
     39 H19        12.9830    2.4221    0.3813 H         1 <0>         0.0887
     40 H20        12.1993    1.0632   -0.4598 H         1 <0>         0.0839
     41 H21        11.4716    4.0868    1.4449 H         1 <0>         0.4077
     42 H22         6.0293    2.4937   -2.0572 H         1 <0>         0.3902
     43 H23         8.2870    2.9644    1.0029 H         1 <0>         0.4354
@<TRIPOS>BOND
     1    1    6 ar
     2    1    2 ar
     3    1   24 1
     4    2    3 ar
     5    2   25 1
     6    3    4 ar
     7    3    8 1
     8    4    5 ar
     9    4   26 1
    10    5    6 ar
    11    5    7 1
    12    6   27 1
    13    8    9 1
    14    9   10 1
    15    9   28 1
    16    9   29 1
    17   10   11 1
    18   10   12 1
    19   10   23 1
    20   12   13 1
    21   12   30 1
    22   12   31 1
    23   13   14 1
    24   13   32 1
    25   13   43 1
    26   14   15 1
    27   14   20 1
    28   14   16 1
    29   16   17 1
    30   16   33 1
    31   16   34 1
    32   17   18 1
    33   17   35 1
    34   17   36 1
    35   18   19 1
    36   18   37 1
    37   18   38 1
    38   19   20 1
    39   19   39 1
    40   19   40 1
    41   20   21 1
    42   20   22 1
    43   22   41 1
    44   23   42 1
@<TRIPOS>MOLECULE
ZINC63176311
   36    37     0     0     0
SMALL
USER_CHARGES

@<TRIPOS>ATOM
      1 C1          1.3368   -0.4791    1.2711 C.ar      1 <0>        -0.0903
      2 C2          2.4910    0.2395    1.0215 C.ar      1 <0>        -0.0551
      3 C3          2.4727    1.2849    0.1174 C.ar      1 <0>        -0.6323
      4 C4          1.3001    1.6125   -0.5378 C.ar      1 <0>        -0.0643
      5 C5          0.1456    0.8948   -0.2892 C.ar      1 <0>        -0.0621
      6 C6          0.1634   -0.1522    0.6154 C.ar      1 <0>         0.0140
      7 Cl1        -1.2863   -1.0546    0.9279 Cl        1 <0>        -0.0109
      8 C7          1.2809    2.7527   -1.5230 C.3       1 <0>         0.4762
      9 F1          0.0334    2.8024   -2.1544 F         1 <0>        -0.1565
     10 F2          1.5102    3.9563   -0.8478 F         1 <0>        -0.1393
     11 F3          2.2812    2.5577   -2.4815 F         1 <0>        -0.1610
     12 S1          3.9442    2.2008   -0.1997 S.o2      1 <0>         2.6675
     13 O1          4.4843    1.6944   -1.4125 O.2       1 <0>        -0.8995
     14 O2          3.6142    3.5721   -0.0267 O.2       1 <0>        -0.9066
     15 N1          5.0253    1.8197    0.9954 N.pl3     1 <0>        -1.1308
     16 C8          5.5684    0.4621    1.0862 C.3       1 <0>         0.1203
     17 H1          4.8978   -0.2417    0.5932 H         1 <0>         0.1261
     18 C9          6.9615    0.4072    0.4350 C.3       1 <0>        -0.1421
     19 C10         7.9484   -0.0201    1.5410 C.3       1 <0>        -0.1232
     20 C11         7.2435    0.3896    2.8580 C.3       1 <0>        -0.1409
     21 C12         5.7561    0.0659    2.5652 C.3       1 <0>         0.0052
     22 H2          5.5627   -0.9980    2.7026 H         1 <0>         0.1695
     23 N2          4.8756    0.8654    3.4274 N.4       1 <0>        -0.6364
     24 H3          1.3522   -1.2985    1.9744 H         1 <0>         0.1614
     25 H4          3.4072   -0.0156    1.5333 H         1 <0>         0.1298
     26 H5         -0.7704    1.1512   -0.8006 H         1 <0>         0.1705
     27 H6          5.2989    2.4953    1.6354 H         1 <0>         0.4193
     28 H7          6.9672   -0.3240   -0.3734 H         1 <0>         0.1014
     29 H8          7.2335    1.3906    0.0515 H         1 <0>         0.0976
     30 H9          8.1088   -1.0979    1.5135 H         1 <0>         0.0888
     31 H10         8.8946    0.5102    1.4338 H         1 <0>         0.0958
     32 H11         7.6108   -0.2056    3.6940 H         1 <0>         0.1065
     33 H12         7.3764    1.4539    3.0523 H         1 <0>         0.0954
     34 H13         3.9142    0.7073    3.1652 H         1 <0>         0.4282
     35 H14         5.0107    0.5941    4.3898 H         1 <0>         0.4452
     36 H15         5.0972    1.8438    3.3195 H         1 <0>         0.4327
@<TRIPOS>BOND
     1    1    6 ar
     2    1    2 ar
     3    1   24 1
     4    2    3 ar
     5    2   25 1
     6    3    4 ar
     7    3   12 1
     8    4    5 ar
     9    4    8 1
    10    5    6 ar
    11    5   26 1
    12    6    7 1
    13    8    9 1
    14    8   10 1
    15    8   11 1
    16   12   13 2
    17   12   14 2
    18   12   15 1
    19   15   16 1
    20   15   27 1
    21   16   17 1
    22   16   21 1
    23   16   18 1
    24   18   19 1
    25   18   28 1
    26   18   29 1
    27   19   20 1
    28   19   30 1
    29   19   31 1
    30   20   21 1
    31   20   32 1
    32   20   33 1
    33   21   22 1
    34   21   23 1
    35   23   34 1
    36   23   35 1
    37   23   36 1
@<TRIPOS>MOLECULE
ZINC12439985
   55    56     0     0     0
SMALL
USER_CHARGES
N-[(1-hydroxycyclohexyl)methyl]-2-[(2R)-1-isobutyl-3-oxo-piperazin-2-yl]acetamide
@<TRIPOS>ATOM
      1 C1         -1.6832   -3.0273   -1.7318 C.3       1 <0>        -0.1677
      2 C2         -0.7573   -3.1266   -0.5179 C.3       1 <0>        -0.1320
      3 C3         -0.5298   -4.5988   -0.1690 C.3       1 <0>        -0.1506
      4 C4          0.5840   -2.4667   -0.8442 C.3       1 <0>        -0.0112
      5 C5          1.3101   -0.4754   -2.0197 C.3       1 <0>        -0.0182
      6 C6          0.8672    0.9457   -2.3724 C.3       1 <0>         0.0835
      7 N1          0.6754    1.7270   -1.1539 N.am      1 <0>        -0.7109
      8 C7          0.5228    1.1683    0.0513 C.2       1 <0>         0.5213
      9 O1          0.3375    1.8910    1.0075 O.2       1 <0>        -0.4964
     10 C8          0.5716   -0.3173    0.2706 C.3       1 <0>         0.0413
     11 H1          1.5365   -0.5883    0.6991 H         1 <0>         0.1762
     12 C9         -0.5444   -0.7231    1.2354 C.3       1 <0>        -0.1767
     13 C10        -1.8799   -0.3559    0.6416 C.2       1 <0>         0.5120
     14 O2         -1.9319    0.2178   -0.4257 O.2       1 <0>        -0.5472
     15 N2         -3.0165   -0.6651    1.2966 N.am      1 <0>        -0.7056
     16 C11        -4.3148   -0.3081    0.7193 C.3       1 <0>         0.0867
     17 C12        -5.4335   -0.7688    1.6559 C.3       1 <0>         0.1249
     18 C13        -5.2807   -2.2653    1.9353 C.3       1 <0>        -0.1433
     19 C14        -6.3993   -2.7260    2.8720 C.3       1 <0>        -0.1176
     20 C15        -7.7556   -2.4660    2.2132 C.3       1 <0>        -0.1225
     21 C16        -7.9083   -0.9695    1.9339 C.3       1 <0>        -0.1179
     22 C17        -6.7897   -0.5088    0.9972 C.3       1 <0>        -0.1041
     23 O3         -5.3542   -0.0443    2.8851 O.3       1 <0>        -0.5413
     24 H2         -2.6768   -3.3844   -1.4610 H         1 <0>         0.0825
     25 H3         -1.7464   -1.9887   -2.0566 H         1 <0>         0.0506
     26 H4         -1.2861   -3.6381   -2.5426 H         1 <0>         0.0787
     27 H5         -1.2152   -2.6186    0.3309 H         1 <0>         0.0890
     28 H6          0.1299   -4.6695    0.6958 H         1 <0>         0.0693
     29 H7         -1.4853   -5.0689    0.0635 H         1 <0>         0.0786
     30 H8         -0.0719   -5.1068   -1.0178 H         1 <0>         0.0719
     31 H9          0.9801   -2.8866   -1.7687 H         1 <0>         0.1400
     32 H10         1.2866   -2.6503   -0.0313 H         1 <0>         0.1364
     33 H11         2.3236   -0.4533   -1.6192 H         1 <0>         0.1418
     34 H12         1.2810   -1.0997   -2.9127 H         1 <0>         0.1529
     35 H13        -0.0701    0.9052   -2.9273 H         1 <0>         0.0984
     36 H14         1.6320    1.4185   -2.9885 H         1 <0>         0.1278
     37 H15         0.6582    2.6945   -1.2217 H         1 <0>         0.4260
     38 H16        -0.5053   -1.7992    1.4042 H         1 <0>         0.1373
     39 H17        -0.4126   -0.2016    2.1834 H         1 <0>         0.1562
     40 H18        -2.9750   -1.1239    2.1502 H         1 <0>         0.4069
     41 H19        -4.3706    0.7729    0.5909 H         1 <0>         0.0882
     42 H20        -4.4282   -0.7953   -0.2492 H         1 <0>         0.0858
     43 H21        -5.3412   -2.8180    0.9978 H         1 <0>         0.0752
     44 H22        -4.3145   -2.4506    2.4046 H         1 <0>         0.0584
     45 H23        -6.3389   -2.1734    3.8095 H         1 <0>         0.0715
     46 H24        -6.2905   -3.7922    3.0710 H         1 <0>         0.0648
     47 H25        -8.5525   -2.7943    2.8805 H         1 <0>         0.0675
     48 H26        -7.8160   -3.0187    1.2757 H         1 <0>         0.0610
     49 H27        -7.8478   -0.4169    2.8714 H         1 <0>         0.0743
     50 H28        -8.8745   -0.7843    1.4646 H         1 <0>         0.0675
     51 H29        -6.8985    0.5573    0.7982 H         1 <0>         0.0749
     52 H30        -6.8502   -1.0615    0.0596 H         1 <0>         0.0786
     53 H31        -4.5191   -0.1624    3.3582 H         1 <0>         0.3699
     54 N3          0.3700   -1.0115   -1.0150 N.4       1 <0>        -0.4007
     55 H32        -0.5919   -0.8507   -1.3361 H         1 <0>         0.4360
@<TRIPOS>BOND
     1    1    2 1
     2    1   24 1
     3    1   25 1
     4    1   26 1
     5    2    3 1
     6    2    4 1
     7    2   27 1
     8    3   28 1
     9    3   29 1
    10    3   30 1
    11    4   31 1
    12    4   32 1
    13    4   54 1
    14    5    6 1
    15    5   33 1
    16    5   34 1
    17    5   54 1
    18    6    7 1
    19    6   35 1
    20    6   36 1
    21    7    8 am
    22    7   37 1
    23    8    9 2
    24    8   10 1
    25   10   11 1
    26   10   12 1
    27   10   54 1
    28   12   13 1
    29   12   38 1
    30   12   39 1
    31   13   14 2
    32   13   15 am
    33   15   16 1
    34   15   40 1
    35   16   17 1
    36   16   41 1
    37   16   42 1
    38   17   22 1
    39   17   18 1
    40   17   23 1
    41   18   19 1
    42   18   43 1
    43   18   44 1
    44   19   20 1
    45   19   45 1
    46   19   46 1
    47   20   21 1
    48   20   47 1
    49   20   48 1
    50   21   22 1
    51   21   49 1
    52   21   50 1
    53   22   51 1
    54   22   52 1
    55   23   53 1
    56   54   55 1
@<TRIPOS>MOLECULE
ZINC40315516
   42    44     0     0     0
SMALL
USER_CHARGES

@<TRIPOS>ATOM
      1 C1         -0.0167    1.3783    0.0096 C.ar      1 <0>        -0.0663
      2 C2          1.1697    2.0893    0.0021 C.ar      1 <0>        -0.0773
      3 C3          2.3780    1.4195   -0.0130 C.ar      1 <0>        -0.0637
      4 C4          2.3999    0.0293   -0.0206 C.ar      1 <0>         0.2132
      5 C5          1.2067   -0.6805   -0.0130 C.ar      1 <0>        -0.0979
      6 C6          0.0021   -0.0041    0.0020 C.ar      1 <0>        -0.6296
      7 S1         -1.5124   -0.9045    0.0122 S.o2      1 <0>         2.6966
      8 O1         -1.2197   -2.1854    0.5533 O.2       1 <0>        -0.9482
      9 O2         -2.4924   -0.0446    0.5773 O.2       1 <0>        -0.9412
     10 N1         -1.9489   -1.1462   -1.5669 N.pl3     1 <0>        -1.1185
     11 C7         -1.1158   -1.9789   -2.4379 C.3       1 <0>         0.1252
     12 C8         -1.9036   -2.3477   -3.6966 C.3       1 <0>        -0.1159
     13 H1         -2.2858   -1.4548   -4.1912 H         1 <0>         0.1176
     14 C9         -3.0539   -3.3338   -3.3632 C.3       1 <0>        -0.1407
     15 C10        -3.2623   -4.0875   -4.6936 C.3       1 <0>        -0.0119
     16 N2         -2.0124   -3.9641   -5.4659 N.4       1 <0>        -0.3617
     17 C11        -1.0381   -3.1913   -4.6656 C.3       1 <0>         0.0003
     18 C12        -1.4716   -5.3005   -5.7480 C.3       1 <0>        -0.0818
     19 C13        -1.0839   -5.6149   -7.1943 C.3       1 <0>        -0.1536
     20 C14        -2.3340   -6.2500   -6.5821 C.3       1 <0>        -0.1557
     21 N3          3.6200   -0.6519   -0.0363 N.pl3     1 <0>        -0.8670
     22 Cl1         3.8668    2.3123   -0.0230 Cl        1 <0>        -0.0485
     23 H2         -0.9598    1.9042    0.0260 H         1 <0>         0.1487
     24 H3          1.1515    3.1692    0.0077 H         1 <0>         0.1471
     25 H4          1.2201   -1.7604   -0.0193 H         1 <0>         0.1459
     26 H5         -2.7563   -0.7365   -1.9151 H         1 <0>         0.4230
     27 H6         -0.2191   -1.4267   -2.7193 H         1 <0>         0.0824
     28 H7         -0.8313   -2.8879   -1.9079 H         1 <0>         0.0931
     29 H8         -2.7544   -4.0224   -2.5730 H         1 <0>         0.1061
     30 H9         -3.9567   -2.7918   -3.0818 H         1 <0>         0.1165
     31 H10        -3.4735   -5.1383   -4.4954 H         1 <0>         0.1353
     32 H11        -4.0867   -3.6395   -5.2484 H         1 <0>         0.1322
     33 H12        -0.4471   -2.5410   -5.3106 H         1 <0>         0.1400
     34 H13        -0.3883   -3.8643   -4.1061 H         1 <0>         0.1372
     35 H14        -0.8624   -5.7378   -4.9569 H         1 <0>         0.1756
     36 H15        -1.2301   -4.8302   -7.9365 H         1 <0>         0.1197
     37 H16        -0.2194   -6.2591   -7.3550 H         1 <0>         0.1335
     38 H17        -2.2920   -7.3119   -6.3400 H         1 <0>         0.1336
     39 H18        -3.3027   -5.8830   -6.9215 H         1 <0>         0.1196
     40 H19         4.4529   -0.1548   -0.0419 H         1 <0>         0.4069
     41 H20         3.6339   -1.6218   -0.0416 H         1 <0>         0.4060
     42 H21        -2.1955   -3.4831   -6.3338 H         1 <0>         0.4242
@<TRIPOS>BOND
     1    1    6 ar
     2    1    2 ar
     3    1   23 1
     4    2    3 ar
     5    2   24 1
     6    3    4 ar
     7    3   22 1
     8    4    5 ar
     9    4   21 1
    10    5    6 ar
    11    5   25 1
    12    6    7 1
    13    7    8 2
    14    7    9 2
    15    7   10 1
    16   10   11 1
    17   10   26 1
    18   11   12 1
    19   11   27 1
    20   11   28 1
    21   12   13 1
    22   12   17 1
    23   12   14 1
    24   14   15 1
    25   14   29 1
    26   14   30 1
    27   15   16 1
    28   15   31 1
    29   15   32 1
    30   16   17 1
    31   16   18 1
    32   16   42 1
    33   17   33 1
    34   17   34 1
    35   18   20 1
    36   18   19 1
    37   18   35 1
    38   19   20 1
    39   19   36 1
    40   19   37 1
    41   20   38 1
    42   20   39 1
    43   21   40 1
    44   21   41 1
@<TRIPOS>MOLECULE
ZINC45166582
   44    45     0     0     0
SMALL
USER_CHARGES

@<TRIPOS>ATOM
      1 C1         -0.4255    1.7287   -1.7862 C.3       1 <0>        -0.1832
      2 C2         -0.3382    0.2251   -1.5172 C.3       1 <0>         0.0269
      3 C3          0.4327   -0.0166   -0.2179 C.3       1 <0>        -0.1837
      4 N1         -1.6928   -0.3296   -1.3932 N.4       1 <0>        -0.3918
      5 C4         -2.4233   -0.1818   -2.6707 C.3       1 <0>        -0.0084
      6 C5         -3.3152   -1.4273   -2.8278 C.3       1 <0>        -0.1463
      7 C6         -3.0196   -2.2952   -1.5830 C.3       1 <0>        -0.1159
      8 H1         -3.7636   -2.1207   -0.8057 H         1 <0>         0.1183
      9 C7         -1.6262   -1.7902   -1.1315 C.3       1 <0>        -0.0023
     10 C8         -2.9674   -3.7779   -1.9568 C.3       1 <0>         0.1226
     11 N2         -4.2985   -4.2227   -2.3772 N.pl3     1 <0>        -1.1195
     12 S1         -4.4753   -5.6580   -3.1839 S.o2      1 <0>         2.6931
     13 O1         -5.8662   -5.8189   -3.4263 O.2       1 <0>        -0.9260
     14 O2         -3.5147   -5.6565   -4.2310 O.2       1 <0>        -0.9547
     15 C9         -4.0062   -6.9418   -2.0719 C.ar      1 <0>        -0.7556
     16 C10        -2.6747   -7.3252   -1.9744 C.ar      1 <0>         0.3163
     17 C11        -2.3090   -8.3377   -1.0966 C.ar      1 <0>        -0.2064
     18 C12        -3.2694   -8.9605   -0.3235 C.ar      1 <0>        -0.0035
     19 C13        -4.5941   -8.5776   -0.4225 C.ar      1 <0>        -0.1786
     20 C14        -4.9617   -7.5648   -1.2916 C.ar      1 <0>         0.0895
     21 Cl1        -6.6251   -7.0816   -1.4066 Cl        1 <0>        -0.0203
     22 N3         -1.7055   -6.6942   -2.7576 N.pl3     1 <0>        -0.8664
     23 H2          0.5796    2.1403   -1.8782 H         1 <0>         0.1054
     24 H3         -0.9748    1.9009   -2.7118 H         1 <0>         0.0808
     25 H4         -0.9435    2.2162   -0.9603 H         1 <0>         0.0807
     26 H5          0.1798   -0.2623   -2.3431 H         1 <0>         0.1363
     27 H6          0.4949   -1.0878   -0.0262 H         1 <0>         0.0805
     28 H7          1.4378    0.3950   -0.3099 H         1 <0>         0.1055
     29 H8         -0.0853    0.4708    0.6080 H         1 <0>         0.0808
     30 H9         -3.0408    0.7160   -2.6435 H         1 <0>         0.1338
     31 H10        -1.7163   -0.1245   -3.4983 H         1 <0>         0.1327
     32 H11        -4.3664   -1.1398   -2.8477 H         1 <0>         0.1101
     33 H12        -3.0528   -1.9682   -3.7370 H         1 <0>         0.1106
     34 H13        -0.8383   -2.2521   -1.7264 H         1 <0>         0.1380
     35 H14        -1.4721   -1.9842   -0.0700 H         1 <0>         0.1412
     36 H15        -2.2612   -3.9218   -2.7744 H         1 <0>         0.0866
     37 H16        -2.6462   -4.3593   -1.0926 H         1 <0>         0.0822
     38 H17        -5.0762   -3.6764   -2.1830 H         1 <0>         0.4243
     39 H18        -1.2745   -8.6381   -1.0189 H         1 <0>         0.1391
     40 H19        -2.9852   -9.7477    0.3591 H         1 <0>         0.1441
     41 H20        -5.3431   -9.0667    0.1827 H         1 <0>         0.1436
     42 H21        -1.8998   -5.8405   -3.1751 H         1 <0>         0.4023
     43 H22        -0.8382   -7.1098   -2.8841 H         1 <0>         0.4111
     44 H23        -2.1926    0.1346   -0.6497 H         1 <0>         0.4261
@<TRIPOS>BOND
     1    1    2 1
     2    1   23 1
     3    1   24 1
     4    1   25 1
     5    2    3 1
     6    2    4 1
     7    2   26 1
     8    3   27 1
     9    3   28 1
    10    3   29 1
    11    4    9 1
    12    4    5 1
    13    4   44 1
    14    5    6 1
    15    5   30 1
    16    5   31 1
    17    6    7 1
    18    6   32 1
    19    6   33 1
    20    7    8 1
    21    7    9 1
    22    7   10 1
    23    9   34 1
    24    9   35 1
    25   10   11 1
    26   10   36 1
    27   10   37 1
    28   11   12 1
    29   11   38 1
    30   12   13 2
    31   12   14 2
    32   12   15 1
    33   15   20 ar
    34   15   16 ar
    35   16   17 ar
    36   16   22 1
    37   17   18 ar
    38   17   39 1
    39   18   19 ar
    40   18   40 1
    41   19   20 ar
    42   19   41 1
    43   20   21 1
    44   22   42 1
    45   22   43 1
@<TRIPOS>MOLECULE
ZINC52488381
   50    52     0     0     0
SMALL
USER_CHARGES

@<TRIPOS>ATOM
      1 C1         -0.9156    1.3839   -0.6660 C.3       1 <0>        -0.1238
      2 C2         -0.6614   -0.0919   -0.4979 C.ar      1 <0>        -0.0675
      3 C3          0.0829   -0.5473    0.5743 C.ar      1 <0>        -0.1186
      4 C4          0.3160   -1.9011    0.7285 C.ar      1 <0>        -0.1095
      5 C5         -0.1955   -2.7995   -0.1891 C.ar      1 <0>        -0.1375
      6 C6         -0.9406   -2.3442   -1.2608 C.ar      1 <0>        -0.0948
      7 C7         -1.1774   -0.9908   -1.4126 C.ar      1 <0>        -0.1165
      8 C8          0.0595   -4.2753   -0.0215 C.3       1 <0>         0.1138
      9 H1         -0.2371   -4.8007   -0.9293 H         1 <0>         0.1072
     10 C9          1.5488   -4.5091    0.2397 C.3       1 <0>         0.1119
     11 N1          1.7783   -5.9284    0.5207 N.pl3     1 <0>        -0.6423
     12 C10         3.0590   -6.3830    0.7894 C.ar      1 <0>         0.5182
     13 C11         4.1380   -5.4960    0.8007 C.ar      1 <0>        -0.2791
     14 C12         5.3969   -5.9935    1.0739 C.ar      1 <0>         0.2446
     15 N2          5.5440   -7.2881    1.3156 N.ar      1 <0>        -0.5767
     16 C13         4.5027   -8.1067    1.2979 C.ar      1 <0>         0.6659
     17 N3          3.2783   -7.6685    1.0456 N.ar      1 <0>        -0.5780
     18 N4          4.6980   -9.4525    1.5551 N.pl3     1 <0>        -0.7945
     19 C14         6.5907   -5.0740    1.0965 C.3       1 <0>        -0.1404
     20 N5         -0.7222   -4.7814    1.1146 N.3       1 <0>        -0.5249
     21 C15        -0.3387   -4.1037    2.3616 C.3       1 <0>        -0.0014
     22 C16        -1.1327   -4.7015    3.5261 C.3       1 <0>         0.0641
     23 O1         -2.5316   -4.5825    3.2534 O.3       1 <0>        -0.3789
     24 C17        -2.9401   -5.2317    2.0463 C.3       1 <0>         0.0627
     25 C18        -2.1644   -4.6393    0.8669 C.3       1 <0>         0.0166
     26 H2         -1.8320    1.6568   -0.1427 H         1 <0>         0.0763
     27 H3         -0.0791    1.9463   -0.2511 H         1 <0>         0.0703
     28 H4         -1.0195    1.6163   -1.7259 H         1 <0>         0.0710
     29 H5          0.4826    0.1546    1.2912 H         1 <0>         0.1261
     30 H6          0.8981   -2.2569    1.5658 H         1 <0>         0.1222
     31 H7         -1.3400   -3.0461   -1.9779 H         1 <0>         0.1241
     32 H8         -1.7626   -0.6353   -2.2478 H         1 <0>         0.1275
     33 H9          2.1223   -4.2154   -0.6395 H         1 <0>         0.0974
     34 H10         1.8654   -3.9133    1.0957 H         1 <0>         0.0896
     35 H11         1.0336   -6.5499    0.5187 H         1 <0>         0.4329
     36 H12         3.9911   -4.4450    0.6000 H         1 <0>         0.1805
     37 H13         5.5890   -9.7856    1.7452 H         1 <0>         0.4292
     38 H14         3.9440  -10.0626    1.5452 H         1 <0>         0.4443
     39 H15         6.7284   -4.6820    2.1041 H         1 <0>         0.1174
     40 H16         7.4809   -5.6271    0.7970 H         1 <0>         0.0994
     41 H17         6.4263   -4.2480    0.4045 H         1 <0>         0.1177
     42 H18         0.7278   -4.2434    2.5386 H         1 <0>         0.0804
     43 H19        -0.5583   -3.0392    2.2798 H         1 <0>         0.0672
     44 H20        -0.8726   -5.7537    3.6418 H         1 <0>         0.0570
     45 H21        -0.8937   -4.1638    4.4436 H         1 <0>         0.0993
     46 H22        -2.7326   -6.2993    2.1190 H         1 <0>         0.0607
     47 H23        -4.0083   -5.0775    1.8937 H         1 <0>         0.1029
     48 H24        -2.4132   -3.5834    0.7612 H         1 <0>         0.0560
     49 H25        -2.4306   -5.1699   -0.0472 H         1 <0>         0.0899
     50 H26         6.4267   -7.6413    1.5079 H         1 <0>         0.4398
@<TRIPOS>BOND
     1    1    2 1
     2    1   26 1
     3    1   27 1
     4    1   28 1
     5    2    7 ar
     6    2    3 ar
     7    3    4 ar
     8    3   29 1
     9    4    5 ar
    10    4   30 1
    11    5    6 ar
    12    5    8 1
    13    6    7 ar
    14    6   31 1
    15    7   32 1
    16    8    9 1
    17    8   10 1
    18    8   20 1
    19   10   11 1
    20   10   33 1
    21   10   34 1
    22   11   12 1
    23   11   35 1
    24   12   17 ar
    25   12   13 ar
    26   13   14 ar
    27   13   36 1
    28   14   15 ar
    29   14   19 1
    30   15   16 ar
    31   15   50 1
    32   16   17 ar
    33   16   18 1
    34   18   37 1
    35   18   38 1
    36   19   39 1
    37   19   40 1
    38   19   41 1
    39   20   25 1
    40   20   21 1
    41   21   22 1
    42   21   42 1
    43   21   43 1
    44   22   23 1
    45   22   44 1
    46   22   45 1
    47   23   24 1
    48   24   25 1
    49   24   46 1
    50   24   47 1
    51   25   48 1
    52   25   49 1
@<TRIPOS>MOLECULE
ZINC66968480
   51    53     0     0     0
SMALL
USER_CHARGES

@<TRIPOS>ATOM
      1 C1         -0.0187    1.5258    0.0104 C.3       1 <0>        -0.1560
      2 C2          0.0021   -0.0041    0.0020 C.3       1 <0>        -0.1481
      3 C3         -1.4333   -0.5336    0.0129 C.3       1 <0>        -0.0080
      4 N1         -1.4134   -2.0025    0.0048 N.4       1 <0>        -0.3856
      5 C4         -0.9327   -2.5226    1.3049 C.3       1 <0>         0.0414
      6 C5         -2.1705   -2.7110    2.1524 C.ar      1 <0>        -0.0781
      7 C6         -2.3379   -2.8596    3.5167 C.ar      1 <0>        -0.1323
      8 C7         -3.6042   -3.0189    4.0485 C.ar      1 <0>        -0.0425
      9 C8         -4.7078   -3.0301    3.2178 C.ar      1 <0>        -0.1793
     10 C9         -4.5441   -2.8811    1.8465 C.ar      1 <0>         0.2700
     11 C10        -3.2713   -2.7214    1.3152 C.ar      1 <0>        -0.2191
     12 C11        -2.7885   -2.5400   -0.1058 C.3       1 <0>         0.0556
     13 N2         -5.6578   -2.8924    1.0037 N.pl3     1 <0>        -0.7235
     14 C12        -7.0001   -3.0615    1.5657 C.3       1 <0>         0.1312
     15 H1         -7.0528   -2.5672    2.5357 H         1 <0>         0.1183
     16 C13        -7.2974   -4.5526    1.7364 C.3       1 <0>        -0.1718
     17 C14        -8.0153   -2.4503    0.6346 C.2       1 <0>         0.5190
     18 O1         -7.6533   -1.9254   -0.3965 O.2       1 <0>        -0.4615
     19 N3         -9.3255   -2.4873    0.9482 N.am      1 <0>        -0.6860
     20 C15       -10.2334   -1.9406    0.1155 C.2       1 <0>         0.6983
     21 O2         -9.8705   -1.4144   -0.9182 O.2       1 <0>        -0.5241
     22 N4        -11.5436   -1.9776    0.4290 N.am      1 <0>        -0.7046
     23 C16       -12.5305   -1.3834   -0.4761 C.3       1 <0>         0.0876
     24 C17       -13.6434   -0.5392    0.1481 C.3       1 <0>        -0.1895
     25 C18       -13.9600   -1.9255   -0.4168 C.3       1 <0>        -0.1843
     26 H2          1.0039    1.9031    0.0027 H         1 <0>         0.0776
     27 H3         -0.5459    1.8868   -0.8726 H         1 <0>         0.0672
     28 H4         -0.5289    1.8773    0.9072 H         1 <0>         0.0665
     29 H5          0.5123   -0.3556   -0.8948 H         1 <0>         0.0867
     30 H6          0.5293   -0.3651    0.8851 H         1 <0>         0.0848
     31 H7         -1.9435   -0.1821    0.9097 H         1 <0>         0.1295
     32 H8         -1.9605   -0.1726   -0.8702 H         1 <0>         0.1314
     33 H9         -0.4240   -3.4763    1.1641 H         1 <0>         0.1472
     34 H10        -0.2615   -1.8028    1.7735 H         1 <0>         0.1413
     35 H11        -1.4771   -2.8517    4.1689 H         1 <0>         0.1349
     36 H12        -3.7307   -3.1350    5.1148 H         1 <0>         0.1424
     37 H13        -5.6966   -3.1541    3.6340 H         1 <0>         0.1395
     38 H14        -3.4281   -1.8325   -0.6334 H         1 <0>         0.1322
     39 H15        -2.7775   -3.4984   -0.6250 H         1 <0>         0.1409
     40 H16        -5.5425   -2.7883    0.0462 H         1 <0>         0.4115
     41 H17        -7.2447   -5.0470    0.7664 H         1 <0>         0.0724
     42 H18        -6.5632   -4.9947    2.4099 H         1 <0>         0.0814
     43 H19        -8.2961   -4.6785    2.1546 H         1 <0>         0.0786
     44 H20        -9.6151   -2.9073    1.7732 H         1 <0>         0.4131
     45 H21       -11.8332   -2.3976    1.2540 H         1 <0>         0.4017
     46 H22       -12.1495   -1.0742   -1.4494 H         1 <0>         0.1422
     47 H23       -13.6414   -0.4259    1.2322 H         1 <0>         0.0992
     48 H24       -13.9948    0.3257   -0.4145 H         1 <0>         0.1073
     49 H25       -14.5196   -1.9725   -1.3510 H         1 <0>         0.1089
     50 H26       -14.1663   -2.7241    0.2957 H         1 <0>         0.1000
     51 H27        -0.8378   -2.3444   -0.7501 H         1 <0>         0.4346
@<TRIPOS>BOND
     1    1    2 1
     2    1   26 1
     3    1   27 1
     4    1   28 1
     5    2    3 1
     6    2   29 1
     7    2   30 1
     8    3    4 1
     9    3   31 1
    10    3   32 1
    11    4   12 1
    12    4    5 1
    13    4   51 1
    14    5    6 1
    15    5   33 1
    16    5   34 1
    17    6   11 ar
    18    6    7 ar
    19    7    8 ar
    20    7   35 1
    21    8    9 ar
    22    8   36 1
    23    9   10 ar
    24    9   37 1
    25   10   11 ar
    26   10   13 1
    27   11   12 1
    28   12   38 1
    29   12   39 1
    30   13   14 1
    31   13   40 1
    32   14   15 1
    33   14   16 1
    34   14   17 1
    35   16   41 1
    36   16   42 1
    37   16   43 1
    38   17   18 2
    39   17   19 am
    40   19   20 am
    41   19   44 1
    42   20   21 2
    43   20   22 am
    44   22   23 1
    45   22   45 1
    46   23   25 1
    47   23   24 1
    48   23   46 1
    49   24   25 1
    50   24   47 1
    51   24   48 1
    52   25   49 1
    53   25   50 1
@<TRIPOS>MOLECULE
ZINC04506742
   46    47     0     0     0
SMALL
USER_CHARGES
3-(3-chloro-4-fluoro-phenyl)-1-(2,2,6,6-tetramethyl-4-piperidyl)-thiourea
@<TRIPOS>ATOM
      1 C1         -2.6047    1.5523   -1.7101 C.3       1 <0>        -0.1729
      2 C2         -2.3117    2.1644   -0.3350 C.3       1 <0>         0.0686
      3 C3         -1.8676    3.6147   -0.5066 C.3       1 <0>        -0.1400
      4 C4         -0.4234    3.6782   -1.0030 C.3       1 <0>         0.1395
      5 C5          0.4705    2.9838    0.0261 C.3       1 <0>        -0.1382
      6 C6          0.0617    1.5179    0.1659 C.3       1 <0>         0.0709
      7 C7          0.8204    0.9376    1.3797 C.3       1 <0>        -0.1843
      8 C8          0.5123    0.7351   -1.0711 C.3       1 <0>        -0.1780
      9 N1         -0.0154    5.0831   -1.1262 N.pl3     1 <0>        -0.6847
     10 C9         -0.2685    5.7611   -2.2632 C.2       1 <0>         0.5526
     11 S1         -1.0658    4.9841   -3.5638 S.2       1 <0>        -0.5900
     12 N2          0.1061    7.0509   -2.3763 N.pl3     1 <0>        -0.6194
     13 C10        -0.0766    7.7292   -3.5873 C.ar      1 <0>         0.1083
     14 C11         0.9435    8.5179   -4.1032 C.ar      1 <0>        -0.0820
     15 C12         0.7638    9.1823   -5.3006 C.ar      1 <0>        -0.1362
     16 C13        -0.4367    9.0720   -5.9815 C.ar      1 <0>         0.1269
     17 C14        -1.4581    8.2900   -5.4664 C.ar      1 <0>        -0.0708
     18 C15        -1.2797    7.6190   -4.2711 C.ar      1 <0>        -0.0326
     19 Cl1        -2.9619    8.1525   -6.3227 Cl        1 <0>        -0.0329
     20 F1         -0.6124    9.7273   -7.1498 F         1 <0>        -0.1182
     21 C16        -3.6422    2.1764    0.4511 C.3       1 <0>        -0.1833
     22 H1         -3.0190    0.5523   -1.5820 H         1 <0>         0.0808
     23 H2         -3.3226    2.1778   -2.2408 H         1 <0>         0.1099
     24 H3         -1.6807    1.4918   -2.2852 H         1 <0>         0.0850
     25 H4         -1.9440    4.1338    0.4518 H         1 <0>         0.0884
     26 H5         -2.5205    4.1117   -1.2281 H         1 <0>         0.1263
     27 H6         -0.3330    3.1970   -1.9726 H         1 <0>         0.1359
     28 H7          0.3693    3.4835    0.9909 H         1 <0>         0.0949
     29 H8          1.5107    3.0419   -0.2989 H         1 <0>         0.1186
     30 H9          0.5735   -0.1182    1.4916 H         1 <0>         0.0859
     31 H10         1.8937    1.0450    1.2225 H         1 <0>         0.1063
     32 H11         0.5296    1.4763    2.2815 H         1 <0>         0.0813
     33 H12        -0.0265    1.0975   -1.9466 H         1 <0>         0.0870
     34 H13         1.5829    0.8752   -1.2196 H         1 <0>         0.1064
     35 H14         0.3010   -0.3246   -0.9273 H         1 <0>         0.0859
     36 H15         0.4364    5.5234   -0.3893 H         1 <0>         0.4039
     37 H16         0.5022    7.5091   -1.6187 H         1 <0>         0.4131
     38 H17         1.8786    8.6082   -3.5703 H         1 <0>         0.1429
     39 H18         1.5587    9.7923   -5.7037 H         1 <0>         0.1552
     40 H19        -2.0759    7.0097   -3.8693 H         1 <0>         0.1662
     41 H20        -3.4764    2.6050    1.4395 H         1 <0>         0.0793
     42 H21        -4.3764    2.7764   -0.0865 H         1 <0>         0.1071
     43 H22        -4.0122    1.1564    0.5547 H         1 <0>         0.0843
     44 N3         -1.3839    1.3112    0.4544 N.4       1 <0>        -0.5102
     45 H23        -1.6103    0.3290    0.2586 H         1 <0>         0.4338
     46 H24        -1.5410    1.5067    1.4500 H         1 <0>         0.4286
@<TRIPOS>BOND
     1    1    2 1
     2    1   22 1
     3    1   23 1
     4    1   24 1
     5    2    3 1
     6    2   21 1
     7    2   44 1
     8    3    4 1
     9    3   25 1
    10    3   26 1
    11    4    5 1
    12    4    9 1
    13    4   27 1
    14    5    6 1
    15    5   28 1
    16    5   29 1
    17    6    7 1
    18    6    8 1
    19    6   44 1
    20    7   30 1
    21    7   31 1
    22    7   32 1
    23    8   33 1
    24    8   34 1
    25    8   35 1
    26    9   10 1
    27    9   36 1
    28   10   11 2
    29   10   12 1
    30   12   13 1
    31   12   37 1
    32   13   18 ar
    33   13   14 ar
    34   14   15 ar
    35   14   38 1
    36   15   16 ar
    37   15   39 1
    38   16   17 ar
    39   16   20 1
    40   17   18 ar
    41   17   19 1
    42   18   40 1
    43   21   41 1
    44   21   42 1
    45   21   43 1
    46   44   45 1
    47   44   46 1
@<TRIPOS>MOLECULE
ZINC36945589
   39    40     0     0     0
SMALL
USER_CHARGES

@<TRIPOS>ATOM
      1 C1          0.9287   -0.3123    1.2175 C.3       1 <0>        -0.1799
      2 C2          0.0819    0.0770    0.0041 C.3       1 <0>         0.0651
      3 H1         -0.0404    1.1598   -0.0213 H         1 <0>         0.1535
      4 C3         -1.2710   -0.5792    0.1044 C.ar      1 <0>        -0.1085
      5 C4         -1.5027   -1.7860   -0.5288 C.ar      1 <0>        -0.1232
      6 C5         -2.7434   -2.3881   -0.4365 C.ar      1 <0>        -0.0819
      7 C6         -3.7533   -1.7838    0.2891 C.ar      1 <0>        -0.0874
      8 C7         -3.5226   -0.5774    0.9225 C.ar      1 <0>        -0.0726
      9 C8         -2.2793    0.0231    0.8347 C.ar      1 <0>        -0.0732
     10 Br1        -1.9609    1.6704    1.7070 Br        1 <0>        -0.0208
     11 N1          0.7526   -0.3690   -1.2244 N.4       1 <0>        -0.5055
     12 C9          0.0138    0.1270   -2.3932 C.3       1 <0>         0.0788
     13 H2         -1.0306   -0.1755   -2.3181 H         1 <0>         0.1543
     14 C10         0.1004    1.6538   -2.4410 C.3       1 <0>        -0.1761
     15 C11         0.6148   -0.4497   -3.6491 C.ar      1 <0>        -0.1755
     16 C12         1.9012   -0.9544   -3.6303 C.ar      1 <0>        -0.1000
     17 C13         2.4549   -1.4838   -4.7800 C.ar      1 <0>        -0.1371
     18 C14         1.7200   -1.5100   -5.9571 C.ar      1 <0>         0.1556
     19 C15         0.4296   -1.0044   -5.9786 C.ar      1 <0>        -0.1608
     20 C16        -0.1260   -0.4788   -4.8220 C.ar      1 <0>         0.1603
     21 O1         -1.3931    0.0121   -4.8384 O.3       1 <0>        -0.4909
     22 O2          2.2654   -2.0305   -7.0878 O.3       1 <0>        -0.4913
     23 H3          0.9779   -1.3985    1.2929 H         1 <0>         0.0873
     24 H4          1.9352    0.0899    1.1023 H         1 <0>         0.0911
     25 H5          0.4763    0.0946    2.1219 H         1 <0>         0.1117
     26 H6         -0.7142   -2.2582   -1.0960 H         1 <0>         0.1244
     27 H7         -2.9241   -3.3307   -0.9317 H         1 <0>         0.1437
     28 H8         -4.7227   -2.2545    0.3606 H         1 <0>         0.1471
     29 H9         -4.3116   -0.1054    1.4892 H         1 <0>         0.1483
     30 H10         1.6944   -0.0075   -1.2436 H         1 <0>         0.4295
     31 H11        -0.3606    2.0153   -3.3602 H         1 <0>         0.1041
     32 H12        -0.4229    2.0745   -1.5823 H         1 <0>         0.0870
     33 H13         1.1463    1.9595   -2.4146 H         1 <0>         0.0860
     34 H14         2.4747   -0.9346   -2.7154 H         1 <0>         0.1251
     35 H15         3.4605   -1.8772   -4.7628 H         1 <0>         0.1461
     36 H16        -0.1439   -1.0239   -6.8936 H         1 <0>         0.1504
     37 H17        -1.4480    0.9518   -5.0599 H         1 <0>         0.4028
     38 H18         2.1078   -2.9779   -7.2004 H         1 <0>         0.4067
     39 H19         0.7788   -1.3774   -1.2462 H         1 <0>         0.4256
@<TRIPOS>BOND
     1    1    2 1
     2    1   23 1
     3    1   24 1
     4    1   25 1
     5    2    3 1
     6    2    4 1
     7    2   11 1
     8    4    9 ar
     9    4    5 ar
    10    5    6 ar
    11    5   26 1
    12    6    7 ar
    13    6   27 1
    14    7    8 ar
    15    7   28 1
    16    8    9 ar
    17    8   29 1
    18    9   10 1
    19   11   12 1
    20   11   30 1
    21   11   39 1
    22   12   13 1
    23   12   14 1
    24   12   15 1
    25   14   31 1
    26   14   32 1
    27   14   33 1
    28   15   20 ar
    29   15   16 ar
    30   16   17 ar
    31   16   34 1
    32   17   18 ar
    33   17   35 1
    34   18   19 ar
    35   18   22 1
    36   19   20 ar
    37   19   36 1
    38   20   21 1
    39   21   37 1
    40   22   38 1
@<TRIPOS>MOLECULE
ZINC42419288
   33    34     0     0     0
SMALL
USER_CHARGES

@<TRIPOS>ATOM
      1 C1         -0.0167    1.3780    0.0096 C.ar      1 <0>        -0.0964
      2 C2          1.1709    2.0859    0.0021 C.ar      1 <0>        -0.0768
      3 C3          2.3773    1.4120   -0.0131 C.ar      1 <0>        -0.0825
      4 C4          2.3966    0.0286   -0.0207 C.ar      1 <0>        -0.0824
      5 C5          1.2084   -0.6791   -0.0132 C.ar      1 <0>        -0.1388
      6 C6          0.0021   -0.0041    0.0020 C.ar      1 <0>        -0.0793
      7 C7          1.2287   -2.1859   -0.0220 C.3       1 <0>         0.0357
      8 N1          1.4890   -2.6801    1.3367 N.4       1 <0>        -0.5068
      9 C8          1.5088   -4.1489    1.3281 C.3       1 <0>         0.0517
     10 C9          1.7759   -4.6559    2.7219 C.ar      1 <0>        -0.1778
     11 C10         3.0489   -5.0621    3.0778 C.ar      1 <0>        -0.0837
     12 C11         3.2973   -5.5276    4.3552 C.ar      1 <0>        -0.1027
     13 C12         2.2738   -5.5896    5.2830 C.ar      1 <0>        -0.0979
     14 C13         0.9962   -5.1842    4.9330 C.ar      1 <0>         0.0936
     15 C14         0.7474   -4.7096    3.6483 C.ar      1 <0>         0.1024
     16 O1         -0.5038   -4.3053    3.3016 O.3       1 <0>        -0.4975
     17 O2         -0.0115   -5.2446    5.8443 O.3       1 <0>        -0.4855
     18 Br1         4.0470   -0.8942   -0.0421 Br        1 <0>        -0.0317
     19 H1         -0.9592    1.9050    0.0260 H         1 <0>         0.1457
     20 H2          1.1558    3.1658    0.0077 H         1 <0>         0.1473
     21 H3          3.3049    1.9651   -0.0193 H         1 <0>         0.1474
     22 H4         -0.9258   -0.5567    0.0083 H         1 <0>         0.1447
     23 H5          0.2646   -2.5603   -0.3662 H         1 <0>         0.1487
     24 H6          2.0142   -2.5348   -0.6922 H         1 <0>         0.1424
     25 H7          2.3815   -2.3336    1.6553 H         1 <0>         0.4220
     26 H8          0.5447   -4.5233    0.9839 H         1 <0>         0.1406
     27 H9          2.2944   -4.4978    0.6578 H         1 <0>         0.1418
     28 H10         3.8508   -5.0158    2.3558 H         1 <0>         0.1415
     29 H11         4.2929   -5.8439    4.6293 H         1 <0>         0.1456
     30 H12         2.4703   -5.9544    6.2804 H         1 <0>         0.1476
     31 H13        -1.0586   -5.0097    2.9396 H         1 <0>         0.4067
     32 H14        -0.1142   -4.4401    6.3709 H         1 <0>         0.4025
     33 H15         0.7618   -2.3572    1.9571 H         1 <0>         0.4320
@<TRIPOS>BOND
     1    1    6 ar
     2    1    2 ar
     3    1   19 1
     4    2    3 ar
     5    2   20 1
     6    3    4 ar
     7    3   21 1
     8    4    5 ar
     9    4   18 1
    10    5    6 ar
    11    5    7 1
    12    6   22 1
    13    7    8 1
    14    7   23 1
    15    7   24 1
    16    8    9 1
    17    8   25 1
    18    8   33 1
    19    9   10 1
    20    9   26 1
    21    9   27 1
    22   10   15 ar
    23   10   11 ar
    24   11   12 ar
    25   11   28 1
    26   12   13 ar
    27   12   29 1
    28   13   14 ar
    29   13   30 1
    30   14   15 ar
    31   14   17 1
    32   15   16 1
    33   16   31 1
    34   17   32 1
@<TRIPOS>MOLECULE
ZINC52905624
   33    34     0     0     0
SMALL
USER_CHARGES

@<TRIPOS>ATOM
      1 C1         -0.0178    1.4608    0.0101 C.3       1 <0>         0.1025
      2 N1          0.0021   -0.0041    0.0020 N.pl3     1 <0>        -0.6827
      3 C2          0.0241   -0.7433    1.2666 C.3       1 <0>         0.1904
      4 C3         -1.3889   -1.0161    1.7137 C.2       1 <0>        -0.1432
      5 C4         -2.0568   -0.1122    2.5189 C.2       1 <0>        -0.1037
      6 C5         -3.3278   -0.3887    2.9033 C.2       1 <0>        -0.1694
      7 S1         -3.6157   -1.9665    2.1191 S.3       1 <0>         0.0929
      8 C6         -2.0257   -2.1485    1.3279 C.2       1 <0>        -0.1790
      9 Br1        -4.4925    0.6319    3.9885 Br        1 <0>         0.0634
     10 C7          0.0000   -0.6922   -1.2050 C.ar      1 <0>         0.2432
     11 C8          1.1999   -1.0266   -1.8199 C.ar      1 <0>        -0.1150
     12 C9          1.1962   -1.7101   -3.0188 C.ar      1 <0>        -0.0416
     13 C10         0.0000   -2.0677   -3.6187 C.ar      1 <0>        -0.1047
     14 C11        -1.2018   -1.7442   -3.0236 C.ar      1 <0>         0.0093
     15 C12        -1.2139   -1.0579   -1.8059 C.ar      1 <0>        -0.1724
     16 C13        -2.4950   -0.7142   -1.1601 C.cat     1 <0>         0.6184
     17 N2         -3.2984   -1.6812   -0.7164 N.pl3     1 <0>        -0.7501
     18 N3         -2.8494    0.5635   -1.0203 N.pl3     1 <0>        -0.7462
     19 Cl1        -2.6968   -2.1954   -3.7821 Cl        1 <0>        -0.0353
     20 H1          1.0048    1.8381    0.0023 H         1 <0>         0.0607
     21 H2         -0.5450    1.8219   -0.8730 H         1 <0>         0.0520
     22 H3         -0.5280    1.8123    0.9069 H         1 <0>         0.0722
     23 H4          0.5496   -1.6879    1.1262 H         1 <0>         0.0888
     24 H5          0.5371   -0.1514    2.0246 H         1 <0>         0.0956
     25 H6         -1.5738    0.7998    2.8373 H         1 <0>         0.1480
     26 H7         -1.6646   -2.9529    0.7043 H         1 <0>         0.1917
     27 H8          2.1371   -0.7509   -1.3592 H         1 <0>         0.1528
     28 H9          2.1320   -1.9675   -3.4925 H         1 <0>         0.1555
     29 H10         0.0082   -2.6022   -4.5572 H         1 <0>         0.1571
     30 H11        -4.1408   -1.4552   -0.2918 H         1 <0>         0.4306
     31 H12        -2.2648    1.2670   -1.3432 H         1 <0>         0.4437
     32 H13        -3.6917    0.7895   -0.5957 H         1 <0>         0.4302
     33 H14        -3.0406   -2.6107   -0.8181 H         1 <0>         0.4445
@<TRIPOS>BOND
     1    1    2 1
     2    1   20 1
     3    1   21 1
     4    1   22 1
     5    2    3 1
     6    2   10 1
     7    3    4 1
     8    3   23 1
     9    3   24 1
    10    4    8 2
    11    4    5 1
    12    5    6 2
    13    5   25 1
    14    6    7 1
    15    6    9 1
    16    7    8 1
    17    8   26 1
    18   10   15 ar
    19   10   11 ar
    20   11   12 ar
    21   11   27 1
    22   12   13 ar
    23   12   28 1
    24   13   14 ar
    25   13   29 1
    26   14   15 ar
    27   14   19 1
    28   15   16 1
    29   16   17 2
    30   16   18 1
    31   17   30 1
    32   17   33 1
    33   18   31 1
    34   18   32 1
@<TRIPOS>MOLECULE
ZINC61367600
   41    43     0     0     0
SMALL
USER_CHARGES

@<TRIPOS>ATOM
      1 C1         -0.6115    1.4302   -0.0030 C.3       1 <0>        -0.1471
      2 C2         -0.3068   -0.0457   -0.0040 C.ar      1 <0>         0.1163
      3 C3         -0.1975   -0.7463   -1.1925 C.ar      1 <0>        -0.1763
      4 C4          0.0830   -2.1004   -1.1619 C.ar      1 <0>         0.2070
      5 N1          0.2484   -2.7389   -0.0196 N.ar      1 <0>        -0.5080
      6 C5          0.1550   -2.1183    1.1459 C.ar      1 <0>         0.4831
      7 C6         -0.1215   -0.7405    1.1969 C.ar      1 <0>        -0.1929
      8 C7         -0.2206   -0.0429    2.4899 C.2       1 <0>         0.3643
      9 S1          1.1501    0.7481    3.1429 S.2       1 <0>        -0.4546
     10 N2         -1.3903   -0.0271    3.1592 N.pl3     1 <0>        -0.7443
     11 N3          0.3360   -2.8277    2.3196 N.pl3     1 <0>        -0.6797
     12 C8          0.5092   -4.2818    2.2774 C.3       1 <0>         0.1923
     13 H1          1.0656   -4.5575    1.3816 H         1 <0>         0.0954
     14 C9          1.2745   -4.7430    3.5183 C.3       1 <0>        -0.1294
     15 C10         1.3026   -6.2728    3.5784 C.3       1 <0>        -0.1088
     16 C11        -0.1109   -6.7792    3.9037 C.3       1 <0>        -0.0564
     17 C12        -1.0794   -6.0740    3.0107 C.2       1 <0>        -0.1105
     18 C13        -0.8579   -4.9593    2.2590 C.2       1 <0>        -0.1826
     19 C14        -1.9305   -4.4933    1.4990 C.2       1 <0>        -0.1655
     20 C15        -3.1165   -5.1428    1.5314 C.2       1 <0>        -0.1627
     21 S2         -2.7718   -6.4801    2.6736 S.3       1 <0>         0.1043
     22 C16         0.2013   -2.8605   -2.4577 C.3       1 <0>        -0.1453
     23 H2          0.3190    1.9932    0.0688 H         1 <0>         0.1196
     24 H3         -1.1264    1.6955   -0.9264 H         1 <0>         0.1037
     25 H4         -1.2476    1.6692    0.8493 H         1 <0>         0.0875
     26 H5         -0.3307   -0.2396   -2.1369 H         1 <0>         0.1889
     27 H6         -2.1847   -0.4112    2.7564 H         1 <0>         0.4076
     28 H7         -1.4377    0.3684    4.0436 H         1 <0>         0.4343
     29 H8          0.3482   -2.3623    3.1706 H         1 <0>         0.4352
     30 H9          2.2956   -4.3639    3.4751 H         1 <0>         0.0904
     31 H10         0.7838   -4.3549    4.4108 H         1 <0>         0.0846
     32 H11         1.6208   -6.6708    2.6148 H         1 <0>         0.0769
     33 H12         1.9946   -6.5955    4.3563 H         1 <0>         0.0952
     34 H13        -0.1655   -7.8537    3.7289 H         1 <0>         0.0973
     35 H14        -0.3477   -6.5634    4.9455 H         1 <0>         0.0975
     36 H15        -1.8140   -3.6130    0.8843 H         1 <0>         0.1091
     37 H16        -4.0329   -4.9127    1.0082 H         1 <0>         0.1923
     38 H17         1.2358   -2.8360   -2.8001 H         1 <0>         0.1203
     39 H18        -0.1054   -3.8947   -2.3016 H         1 <0>         0.0971
     40 H19        -0.4410   -2.4005   -3.2087 H         1 <0>         0.1220
     41 H20         0.4435   -3.6889   -0.0340 H         1 <0>         0.4419
@<TRIPOS>BOND
     1    1    2 1
     2    1   23 1
     3    1   24 1
     4    1   25 1
     5    2    7 ar
     6    2    3 ar
     7    3    4 ar
     8    3   26 1
     9    4    5 ar
    10    4   22 1
    11    5    6 ar
    12    5   41 1
    13    6    7 ar
    14    6   11 1
    15    7    8 1
    16    8    9 2
    17    8   10 1
    18   10   27 1
    19   10   28 1
    20   11   12 1
    21   11   29 1
    22   12   13 1
    23   12   18 1
    24   12   14 1
    25   14   15 1
    26   14   30 1
    27   14   31 1
    28   15   16 1
    29   15   32 1
    30   15   33 1
    31   16   17 1
    32   16   34 1
    33   16   35 1
    34   17   21 1
    35   17   18 2
    36   18   19 1
    37   19   20 2
    38   19   36 1
    39   20   21 1
    40   20   37 1
    41   22   38 1
    42   22   39 1
    43   22   40 1
@<TRIPOS>MOLECULE
ZINC08738466
   46    49     0     0     0
SMALL
USER_CHARGES
2,6-dihydroxy-3-(p-tolyl)-5-(1,2,3,4-tetrahydroisoquinolin-1-yl)pyrimidin-4-one
@<TRIPOS>ATOM
      1 C1         -3.6194    5.9170    0.0658 C.3       1 <0>        -0.1264
      2 C2         -2.3349    5.1291    0.0503 C.ar      1 <0>        -0.0505
      3 C3         -2.0213    4.3423   -1.0427 C.ar      1 <0>        -0.1083
      4 C4         -0.8443    3.6197   -1.0603 C.ar      1 <0>        -0.0801
      5 C5          0.0241    3.6835    0.0211 C.ar      1 <0>         0.0696
      6 C6         -0.2966    4.4696    1.1198 C.ar      1 <0>        -0.0831
      7 C7         -1.4721    5.1948    1.1289 C.ar      1 <0>        -0.1094
      8 N1          1.2189    2.9516    0.0063 N.am      1 <0>        -0.4630
      9 C8          2.3431    3.5069   -0.4929 C.2       1 <0>         0.5718
     10 O1          2.3309    4.6453   -0.9337 O.2       1 <0>        -0.5129
     11 C9          3.5238    2.7538   -0.4964 C.2       1 <0>        -0.4233
     12 C10         3.4931    1.4673    0.0125 C.2       1 <0>         0.4841
     13 N2          2.3498    0.9724    0.4989 N.2       1 <0>        -0.6340
     14 C11         1.2440    1.6819    0.4947 C.2       1 <0>         0.6615
     15 O2          0.1111    1.1423    0.9898 O.3       1 <0>        -0.4288
     16 O3          4.6177    0.7144    0.0230 O.3       1 <0>        -0.4349
     17 C12         4.8029    3.3333   -1.0434 C.3       1 <0>         0.1902
     18 H1          5.6194    2.6326   -0.8688 H         1 <0>         0.1530
     19 C13         4.6538    3.5583   -2.5252 C.ar      1 <0>        -0.1090
     20 C14         4.0277    2.5786   -3.2821 C.ar      1 <0>        -0.0847
     21 C15         3.8720    2.7418   -4.6437 C.ar      1 <0>        -0.1103
     22 C16         4.3429    3.8873   -5.2582 C.ar      1 <0>        -0.0945
     23 C17         4.9653    4.8634   -4.5065 C.ar      1 <0>        -0.1061
     24 C18         5.1207    4.7013   -3.1380 C.ar      1 <0>        -0.0824
     25 C19         5.8028    5.7953   -2.3573 C.3       1 <0>        -0.1061
     26 C20         6.2420    5.2660   -0.9918 C.3       1 <0>         0.0020
     27 H2         -4.4122    5.3108    0.5041 H         1 <0>         0.0819
     28 H3         -3.4837    6.8215    0.6588 H         1 <0>         0.0747
     29 H4         -3.8914    6.1887   -0.9541 H         1 <0>         0.0748
     30 H5         -2.6972    4.2930   -1.8837 H         1 <0>         0.1382
     31 H6         -0.5996    3.0059   -1.9146 H         1 <0>         0.1270
     32 H7          0.3748    4.5178    1.9644 H         1 <0>         0.1264
     33 H8         -1.7197    5.8102    1.9811 H         1 <0>         0.1381
     34 H9          0.1669    0.2381    1.3281 H         1 <0>         0.4530
     35 H10         4.4962   -0.1688    0.3976 H         1 <0>         0.4308
     36 H11         3.6597    1.6834   -2.8031 H         1 <0>         0.1214
     37 H12         3.3831    1.9763   -5.2280 H         1 <0>         0.1323
     38 H13         4.2237    4.0183   -6.3236 H         1 <0>         0.1342
     39 H14         5.3328    5.7584   -4.9865 H         1 <0>         0.1334
     40 H15         5.1109    6.6259   -2.2180 H         1 <0>         0.1034
     41 H16         6.6767    6.1410   -2.9095 H         1 <0>         0.1216
     42 H17         6.5727    6.0954   -0.3666 H         1 <0>         0.1384
     43 H18         7.0576    4.5538   -1.1168 H         1 <0>         0.1327
     44 N3          5.0913    4.5989   -0.3548 N.4       1 <0>        -0.5150
     45 H19         5.3105    4.4084    0.6300 H         1 <0>         0.4311
     46 H20         4.2692    5.2116   -0.4101 H         1 <0>         0.4374
@<TRIPOS>BOND
     1    1    2 1
     2    1   27 1
     3    1   28 1
     4    1   29 1
     5    2    7 ar
     6    2    3 ar
     7    3    4 ar
     8    3   30 1
     9    4    5 ar
    10    4   31 1
    11    5    6 ar
    12    5    8 1
    13    6    7 ar
    14    6   32 1
    15    7   33 1
    16    8   14 1
    17    8    9 am
    18    9   10 2
    19    9   11 1
    20   11   12 2
    21   11   17 1
    22   12   13 1
    23   12   16 1
    24   13   14 2
    25   14   15 1
    26   15   34 1
    27   16   35 1
    28   17   18 1
    29   17   19 1
    30   17   44 1
    31   19   24 ar
    32   19   20 ar
    33   20   21 ar
    34   20   36 1
    35   21   22 ar
    36   21   37 1
    37   22   23 ar
    38   22   38 1
    39   23   24 ar
    40   23   39 1
    41   24   25 1
    42   25   26 1
    43   25   40 1
    44   25   41 1
    45   26   42 1
    46   26   43 1
    47   26   44 1
    48   44   45 1
    49   44   46 1
@<TRIPOS>MOLECULE
ZINC37164442
   40    41     0     0     0
SMALL
USER_CHARGES

@<TRIPOS>ATOM
      1 C1         -0.0173    1.4248    0.0099 C.3       1 <0>         0.0203
      2 O1          0.0021   -0.0041    0.0020 O.3       1 <0>        -0.2933
      3 C2          0.6062   -0.6075   -1.0564 C.ar      1 <0>         0.1196
      4 C3          1.1729    0.1592   -2.0623 C.ar      1 <0>        -0.1640
      5 C4          1.7862   -0.4553   -3.1379 C.ar      1 <0>        -0.1291
      6 C5          1.8363   -1.8349   -3.2137 C.ar      1 <0>        -0.0886
      7 C6          1.2728   -2.6062   -2.2134 C.ar      1 <0>        -0.0896
      8 C7          0.6617   -1.9957   -1.1289 C.ar      1 <0>         0.1413
      9 O2          0.1118   -2.7523   -0.1414 O.3       1 <0>        -0.4686
     10 Br1         1.3422   -4.4928   -2.3213 Br        1 <0>         0.0044
     11 C8          2.4013    0.3804   -4.2308 C.3       1 <0>         0.0455
     12 N1          3.8059    0.6586   -3.9027 N.4       1 <0>        -0.5082
     13 C9          4.4055    1.4733   -4.9680 C.3       1 <0>         0.0281
     14 H1          4.2743    0.9714   -5.9266 H         1 <0>         0.1498
     15 C10         3.7212    2.8410   -5.0104 C.3       1 <0>        -0.1408
     16 C11         4.3456    3.6895   -6.1199 C.3       1 <0>        -0.1136
     17 C12         5.8386    3.8747   -5.8413 C.3       1 <0>        -0.1644
     18 C13         6.5230    2.5069   -5.7989 C.3       1 <0>         0.1106
     19 H2          7.5866    2.6388   -5.6004 H         1 <0>         0.0772
     20 C14         5.8985    1.6584   -4.6894 C.3       1 <0>        -0.1337
     21 O3          6.3509    1.8490   -7.0557 O.3       1 <0>        -0.5699
     22 H3          1.0053    1.8021    0.0021 H         1 <0>         0.0590
     23 H4         -0.5445    1.7859   -0.8732 H         1 <0>         0.0617
     24 H5         -0.5275    1.7763    0.9067 H         1 <0>         0.1142
     25 H6          1.1349    1.2370   -2.0059 H         1 <0>         0.1470
     26 H7          2.3161   -2.3113   -4.0559 H         1 <0>         0.1482
     27 H8         -0.8163   -2.9792   -0.2902 H         1 <0>         0.4052
     28 H9          2.3492   -0.1612   -5.1753 H         1 <0>         0.1442
     29 H10         1.8561    1.3200   -4.3201 H         1 <0>         0.1420
     30 H11         3.8542    1.1599   -3.0284 H         1 <0>         0.4240
     31 H12         2.6575    2.7091   -5.2089 H         1 <0>         0.0882
     32 H13         3.8524    3.3429   -4.0517 H         1 <0>         0.0858
     33 H14         4.2144    3.1877   -7.0786 H         1 <0>         0.0818
     34 H15         3.8581    4.6639   -6.1502 H         1 <0>         0.0842
     35 H16         6.2835    4.4791   -6.6318 H         1 <0>         0.0827
     36 H17         5.9699    4.3765   -4.8827 H         1 <0>         0.0802
     37 H18         6.0297    2.1602   -3.7307 H         1 <0>         0.0990
     38 H19         6.3860    0.6840   -4.6591 H         1 <0>         0.0956
     39 H20         6.7236    2.3313   -7.8064 H         1 <0>         0.3946
     40 H21         4.3106   -0.2112   -3.8200 H         1 <0>         0.4294
@<TRIPOS>BOND
     1    1    2 1
     2    1   22 1
     3    1   23 1
     4    1   24 1
     5    2    3 1
     6    3    8 ar
     7    3    4 ar
     8    4    5 ar
     9    4   25 1
    10    5    6 ar
    11    5   11 1
    12    6    7 ar
    13    6   26 1
    14    7    8 ar
    15    7   10 1
    16    8    9 1
    17    9   27 1
    18   11   12 1
    19   11   28 1
    20   11   29 1
    21   12   13 1
    22   12   30 1
    23   12   40 1
    24   13   14 1
    25   13   20 1
    26   13   15 1
    27   15   16 1
    28   15   31 1
    29   15   32 1
    30   16   17 1
    31   16   33 1
    32   16   34 1
    33   17   18 1
    34   17   35 1
    35   17   36 1
    36   18   19 1
    37   18   20 1
    38   18   21 1
    39   20   37 1
    40   20   38 1
    41   21   39 1
@<TRIPOS>MOLECULE
ZINC40757692
   40    42     0     0     0
SMALL
USER_CHARGES

@<TRIPOS>ATOM
      1 C1          1.2001    0.3462    0.7000 C.3       1 <0>         0.0906
      2 N1         -0.0384   -0.0536    0.0273 N.pl3     1 <0>        -0.5835
      3 C2         -1.2719    0.1651    0.6466 C.ar      1 <0>         0.1859
      4 C3         -2.4390   -0.3083    0.0602 C.ar      1 <0>        -0.1751
      5 C4         -3.6562   -0.0908    0.6752 C.ar      1 <0>        -0.0748
      6 C5         -3.7142    0.5973    1.8733 C.ar      1 <0>        -0.1477
      7 C6         -2.5544    1.0699    2.4597 C.ar      1 <0>        -0.0722
      8 C7         -1.3333    0.8514    1.8528 C.ar      1 <0>        -0.1668
      9 C8          0.0134   -0.6507   -1.2274 C.ar      1 <0>         0.4145
     10 C9          0.0746    0.1311   -2.3827 C.ar      1 <0>         0.1252
     11 C10         0.1254   -0.5195   -3.6169 C.ar      1 <0>         0.4169
     12 N2          0.1138   -1.8503   -3.6450 N.ar      1 <0>        -0.5056
     13 C11         0.0553   -2.5508   -2.5307 C.ar      1 <0>         0.3358
     14 N3          0.0111   -1.9763   -1.3456 N.ar      1 <0>        -0.4499
     15 N4          0.1869    0.2112   -4.7981 N.pl3     1 <0>        -0.6331
     16 C12         0.1276   -0.4466   -6.0313 C.ar      1 <0>         0.0238
     17 C13         1.2753   -0.5901   -6.7994 C.ar      1 <0>        -0.0707
     18 C14         1.2136   -1.2401   -8.0168 C.ar      1 <0>        -0.1109
     19 C15         0.0108   -1.7482   -8.4718 C.ar      1 <0>        -0.0551
     20 C16        -1.1353   -1.6075   -7.7109 C.ar      1 <0>        -0.1375
     21 C17        -1.0801   -0.9635   -6.4884 C.ar      1 <0>         0.1029
     22 F1         -2.1984   -0.8314   -5.7420 F         1 <0>        -0.1259
     23 N5          0.0842    1.5328   -2.3054 N.pl3     1 <0>        -0.8281
     24 H1          1.5130   -0.4427    1.3839 H         1 <0>         0.0710
     25 H2          1.9797    0.5131   -0.0433 H         1 <0>         0.0732
     26 H3          1.0290    1.2657    1.2597 H         1 <0>         0.0898
     27 H4         -2.3944   -0.8455   -0.8757 H         1 <0>         0.1068
     28 H5         -4.5639   -0.4583    0.2197 H         1 <0>         0.1273
     29 H6         -4.6675    0.7663    2.3519 H         1 <0>         0.1287
     30 H7         -2.6033    1.6072    3.3953 H         1 <0>         0.1325
     31 H8         -0.4275    1.2169    2.3136 H         1 <0>         0.1316
     32 H9          0.0472   -3.6291   -2.5903 H         1 <0>         0.2483
     33 H10         0.2708    1.1770   -4.7671 H         1 <0>         0.4394
     34 H11         2.2154   -0.1935   -6.4455 H         1 <0>         0.1480
     35 H12         2.1064   -1.3513   -8.6143 H         1 <0>         0.1511
     36 H13        -0.0338   -2.2558   -9.4241 H         1 <0>         0.1528
     37 H14        -2.0732   -2.0053   -8.0694 H         1 <0>         0.1554
     38 H15        -0.0255    1.9719   -1.4474 H         1 <0>         0.4286
     39 H16         0.2006    2.0621   -3.1098 H         1 <0>         0.4099
     40 H17         0.1485   -2.3108   -4.4980 H         1 <0>         0.4469
@<TRIPOS>BOND
     1    1    2 1
     2    1   24 1
     3    1   25 1
     4    1   26 1
     5    2    3 1
     6    2    9 1
     7    3    8 ar
     8    3    4 ar
     9    4    5 ar
    10    4   27 1
    11    5    6 ar
    12    5   28 1
    13    6    7 ar
    14    6   29 1
    15    7    8 ar
    16    7   30 1
    17    8   31 1
    18    9   14 ar
    19    9   10 ar
    20   10   11 ar
    21   10   23 1
    22   11   12 ar
    23   11   15 1
    24   12   13 ar
    25   12   40 1
    26   13   14 ar
    27   13   32 1
    28   15   16 1
    29   15   33 1
    30   16   21 ar
    31   16   17 ar
    32   17   18 ar
    33   17   34 1
    34   18   19 ar
    35   18   35 1
    36   19   20 ar
    37   19   36 1
    38   20   21 ar
    39   20   37 1
    40   21   22 1
    41   23   38 1
    42   23   39 1
@<TRIPOS>MOLECULE
ZINC50459866
   30    31     0     0     0
SMALL
USER_CHARGES

@<TRIPOS>ATOM
      1 C1          0.1539    1.3731    0.6023 C.ar      1 <0>        -0.1144
      2 C2          1.1768    2.0883   -0.0059 C.ar      1 <0>         0.1539
      3 C3          2.2186    1.4149   -0.6296 C.ar      1 <0>        -0.0987
      4 C4          2.2371    0.0331   -0.6449 C.ar      1 <0>        -0.0136
      5 C5          1.2145   -0.6815   -0.0368 C.ar      1 <0>         0.0853
      6 C6          0.1730   -0.0087    0.5867 C.ar      1 <0>        -0.0108
      7 Cl1        -1.1056   -0.9030    1.3477 Cl        1 <0>        -0.0113
      8 O1          1.2330   -2.0414   -0.0520 O.3       1 <0>        -0.3148
      9 C7          1.8942   -2.6934    1.0342 C.3       1 <0>         0.4067
     10 F1          3.2363   -2.2996    1.0671 F         1 <0>        -0.1957
     11 F2          1.2747   -2.3393    2.2375 F         1 <0>        -0.1945
     12 Cl2         3.5393   -0.8089   -1.4252 Cl        1 <0>        -0.0157
     13 N1          1.1575    3.4891    0.0093 N.am      1 <0>        -0.6411
     14 C8          2.3121    4.1779    0.1037 C.2       1 <0>         0.5491
     15 O2          3.3724    3.5891    0.0910 O.2       1 <0>        -0.5487
     16 C9          2.2857    5.6798    0.2250 C.3       1 <0>        -0.1762
     17 H1          1.4852    6.1814   -0.3187 H         1 <0>         0.1692
     18 C10         2.7231    6.2886    1.5588 C.3       1 <0>        -0.1216
     19 C11         3.6295    6.4038    0.3307 C.3       1 <0>        -0.0332
     20 H2          3.7128    7.3818   -0.1433 H         1 <0>         0.1943
     21 N2          4.8466    5.5816    0.3060 N.4       1 <0>        -0.6019
     22 H3         -0.6542    1.8966    1.0914 H         1 <0>         0.1562
     23 H4          3.0142    1.9709   -1.1031 H         1 <0>         0.1620
     24 H5          1.8357   -3.7735    0.8995 H         1 <0>         0.1858
     25 H6          0.3132    3.9632   -0.0481 H         1 <0>         0.4281
     26 H7          2.2106    7.1909    1.8924 H         1 <0>         0.1520
     27 H8          3.0299    5.6028    2.3485 H         1 <0>         0.1302
     28 H9          4.8880    5.0679   -0.5614 H         1 <0>         0.4429
     29 H10         5.6569    6.1780    0.3827 H         1 <0>         0.4385
     30 H11         4.8310    4.9343    1.0798 H         1 <0>         0.4380
@<TRIPOS>BOND
     1    1    6 ar
     2    1    2 ar
     3    1   22 1
     4    2    3 ar
     5    2   13 1
     6    3    4 ar
     7    3   23 1
     8    4    5 ar
     9    4   12 1
    10    5    6 ar
    11    5    8 1
    12    6    7 1
    13    8    9 1
    14    9   10 1
    15    9   11 1
    16    9   24 1
    17   13   14 am
    18   13   25 1
    19   14   15 2
    20   14   16 1
    21   16   17 1
    22   16   19 1
    23   16   18 1
    24   18   19 1
    25   18   26 1
    26   18   27 1
    27   19   20 1
    28   19   21 1
    29   21   28 1
    30   21   29 1
    31   21   30 1
@<TRIPOS>MOLECULE
ZINC63806976
   46    49     0     0     0
SMALL
USER_CHARGES

@<TRIPOS>ATOM
      1 C1          0.1337    1.8722   -0.7798 C.ar      1 <0>        -0.1091
      2 C2          0.0430    0.6115   -0.2200 C.ar      1 <0>        -0.1216
      3 C3          1.1853   -0.1424   -0.0259 C.ar      1 <0>        -0.0797
      4 C4          2.4182    0.3643   -0.3918 C.ar      1 <0>        -0.1006
      5 C5          2.5089    1.6246   -0.9524 C.ar      1 <0>        -0.1006
      6 C6          1.3667    2.3790   -1.1453 C.ar      1 <0>        -0.1208
      7 C7          3.6637   -0.4572   -0.1793 C.3       1 <0>         0.1416
      8 H1          4.5052    0.1985    0.0444 H         1 <0>         0.1332
      9 C8          3.9703   -1.2936   -1.4584 C.3       1 <0>        -0.1107
     10 H2          4.5246   -0.7099   -2.1933 H         1 <0>         0.1464
     11 S1          5.0246   -2.6052   -0.7038 S.3       1 <0>        -0.1187
     12 N1          4.5117   -2.4215    1.0021 N.3       1 <0>        -0.3652
     13 N2          3.4558   -1.4024    0.9342 N.3       1 <0>        -0.4927
     14 C9          2.7123   -1.8706   -2.0547 C.2       1 <0>         0.5402
     15 O1          1.8191   -2.2556   -1.3303 O.2       1 <0>        -0.5210
     16 N3          2.5800   -1.9589   -3.3931 N.am      1 <0>        -0.7239
     17 C10         1.3571   -2.5198   -3.9728 C.3       1 <0>         0.1277
     18 C11         1.4629   -2.5053   -5.4990 C.3       1 <0>        -0.1056
     19 C12         0.2050   -3.0823   -6.0954 C.2       1 <0>         0.0692
     20 C13        -0.8774   -2.3974   -6.5298 C.ar      1 <0>        -0.1657
     21 C14        -1.1958   -0.9652   -6.5744 C.ar      1 <0>        -0.0132
     22 C15        -2.3889   -0.5738   -7.0769 C.ar      1 <0>        -0.1492
     23 C16        -3.3268   -1.4994   -7.5546 C.ar      1 <0>         0.0551
     24 C17        -3.1065   -2.8311   -7.5466 C.ar      1 <0>        -0.2096
     25 C18        -1.8846   -3.3544   -7.0408 C.ar      1 <0>         0.3280
     26 N4         -1.4421   -4.5832   -6.9267 N.pl3     1 <0>        -0.5842
     27 C19        -0.1001   -4.5441   -6.3353 C.3       1 <0>         0.0603
     28 H3         -0.7593    2.4593   -0.9356 H         1 <0>         0.1243
     29 H4         -0.9203    0.2156    0.0659 H         1 <0>         0.1233
     30 H5          1.1145   -1.1270    0.4121 H         1 <0>         0.1274
     31 H6          3.4722    2.0206   -1.2380 H         1 <0>         0.1272
     32 H7          1.4375    3.3639   -1.5829 H         1 <0>         0.1274
     33 H8          4.1531   -3.2910    1.3675 H         1 <0>         0.3572
     34 H9          2.5440   -1.8310    0.8793 H         1 <0>         0.3496
     35 H10         3.2944   -1.6509   -3.9725 H         1 <0>         0.4084
     36 H11         1.2285   -3.5456   -3.6273 H         1 <0>         0.0794
     37 H12         0.5003   -1.9218   -3.6623 H         1 <0>         0.0811
     38 H13         1.5914   -1.4795   -5.8446 H         1 <0>         0.1170
     39 H14         2.3197   -3.1033   -5.8095 H         1 <0>         0.1201
     40 H15        -0.4880   -0.2349   -6.2111 H         1 <0>         0.1603
     41 H16        -2.6252    0.4795   -7.1107 H         1 <0>         0.1585
     42 H17        -4.2645   -1.1320   -7.9447 H         1 <0>         0.1617
     43 H18        -3.8622   -3.5029   -7.9261 H         1 <0>         0.1612
     44 H19         0.6288   -4.9719   -7.0236 H         1 <0>         0.1758
     45 H20        -0.0916   -5.0894   -5.3915 H         1 <0>         0.1740
     46 H21        -1.9205   -5.3841   -7.1926 H         1 <0>         0.4566
@<TRIPOS>BOND
     1    1    6 ar
     2    1    2 ar
     3    1   28 1
     4    2    3 ar
     5    2   29 1
     6    3    4 ar
     7    3   30 1
     8    4    5 ar
     9    4    7 1
    10    5    6 ar
    11    5   31 1
    12    6   32 1
    13    7    8 1
    14    7   13 1
    15    7    9 1
    16    9   10 1
    17    9   11 1
    18    9   14 1
    19   11   12 1
    20   12   13 1
    21   12   33 1
    22   13   34 1
    23   14   15 2
    24   14   16 am
    25   16   17 1
    26   16   35 1
    27   17   18 1
    28   17   36 1
    29   17   37 1
    30   18   19 1
    31   18   38 1
    32   18   39 1
    33   19   27 1
    34   19   20 2
    35   20   25 ar
    36   20   21 ar
    37   21   22 ar
    38   21   40 1
    39   22   23 ar
    40   22   41 1
    41   23   24 ar
    42   23   42 1
    43   24   25 ar
    44   24   43 1
    45   25   26 2
    46   26   27 1
    47   26   46 1
    48   27   44 1
    49   27   45 1
@<TRIPOS>MOLECULE
ZINC04809705
   54    56     0     0     0
SMALL
USER_CHARGES
methyl 4-(2,4-dimethylphenyl)-6-[(4-fluorophenyl)methylaminomethyl]-2-oxo-3,4-dihydro-1H-pyrimidine-5-carboxylate
@<TRIPOS>ATOM
      1 C1          1.5940    0.0002    7.8404 C.3       1 <0>        -0.1233
      2 C2          0.9874    0.7691    6.6950 C.ar      1 <0>        -0.0597
      3 C3         -0.0725    0.2333    5.9872 C.ar      1 <0>        -0.1245
      4 C4         -0.6326    0.9409    4.9404 C.ar      1 <0>        -0.0884
      5 C5         -0.1255    2.1796    4.5937 C.ar      1 <0>        -0.1333
      6 C6          0.9344    2.7150    5.3009 C.ar      1 <0>        -0.0541
      7 C7          1.4909    2.0096    6.3518 C.ar      1 <0>        -0.1139
      8 C8          1.4831    4.0678    4.9270 C.3       1 <0>        -0.1247
      9 C9         -0.7324    2.9486    3.4486 C.3       1 <0>         0.2326
     10 H1         -0.5538    4.0089    3.6277 H         1 <0>         0.1085
     11 C10         0.0026    2.5585    2.1823 C.2       1 <0>        -0.1565
     12 C11        -0.7226    2.0350    1.1705 C.2       1 <0>         0.1210
     13 N1         -2.0732    1.8686    1.2840 N.am      1 <0>        -0.6548
     14 C12        -2.7715    2.1903    2.3803 C.2       1 <0>         0.7071
     15 O1         -3.9721    2.0005    2.3893 O.2       1 <0>        -0.5395
     16 N2         -2.1875    2.7231    3.4718 N.am      1 <0>        -0.7028
     17 C13        -0.0310    1.6334   -0.1068 C.3       1 <0>         0.0344
     18 C14         0.5278   -0.2497   -1.5226 C.3       1 <0>         0.0517
     19 C15         0.3986   -1.7438   -1.6706 C.ar      1 <0>        -0.1870
     20 C16         1.3673   -2.5765   -1.1418 C.ar      1 <0>        -0.0575
     21 C17         1.2470   -3.9471   -1.2719 C.ar      1 <0>        -0.1521
     22 C18         0.1619   -4.4857   -1.9424 C.ar      1 <0>         0.1458
     23 C19        -0.8047   -3.6505   -2.4765 C.ar      1 <0>        -0.1524
     24 C20        -0.6854   -2.2805   -2.3398 C.ar      1 <0>        -0.0586
     25 F1          0.0466   -5.8252   -2.0758 F         1 <0>        -0.1205
     26 C21         1.4010    2.7363    2.0641 C.2       1 <0>         0.5116
     27 O2          2.1613    1.9233    2.5556 O.2       1 <0>        -0.4572
     28 O3          1.8918    3.8074    1.4063 O.3       1 <0>        -0.3446
     29 C22         3.3138    3.9237    1.3256 C.3       1 <0>         0.0260
     30 H2          1.0811    0.2620    8.7658 H         1 <0>         0.0774
     31 H3          1.4886   -1.0690    7.6565 H         1 <0>         0.0699
     32 H4          2.6511    0.2515    7.9272 H         1 <0>         0.0708
     33 H5         -0.4658   -0.7362    6.2552 H         1 <0>         0.1252
     34 H6         -1.4637    0.5246    4.3905 H         1 <0>         0.1154
     35 H7          2.3189    2.4281    6.9046 H         1 <0>         0.1277
     36 H8          0.9017    4.8453    5.4225 H         1 <0>         0.0821
     37 H9          2.5246    4.1370    5.2412 H         1 <0>         0.0762
     38 H10         1.4200    4.1996    3.8469 H         1 <0>         0.0548
     39 H11        -2.5531    1.4923    0.5296 H         1 <0>         0.4254
     40 H12        -2.7131    2.9528    4.2540 H         1 <0>         0.4436
     41 H13         1.0201    1.9177   -0.0558 H         1 <0>         0.1517
     42 H14        -0.5033    2.1379   -0.9498 H         1 <0>         0.1665
     43 H15         0.0593    0.2417   -2.3754 H         1 <0>         0.1460
     44 H16         1.5827    0.0216   -1.4814 H         1 <0>         0.1437
     45 H17         2.2162   -2.1559   -0.6233 H         1 <0>         0.1436
     46 H18         2.0014   -4.5976   -0.8546 H         1 <0>         0.1509
     47 H19        -1.6516   -4.0696   -2.9994 H         1 <0>         0.1511
     48 H20        -1.4393   -1.6288   -2.7563 H         1 <0>         0.1440
     49 H21         3.5737    4.8262    0.7724 H         1 <0>         0.1148
     50 H22         3.7313    3.9807    2.3309 H         1 <0>         0.0715
     51 H23         3.7209    3.0527    0.8120 H         1 <0>         0.0657
     52 N3         -0.1418    0.1725   -0.2778 N.4       1 <0>        -0.5227
     53 H24        -1.1337   -0.0892   -0.3213 H         1 <0>         0.4322
     54 H25         0.3012   -0.2966    0.5209 H         1 <0>         0.4393
@<TRIPOS>BOND
     1    1    2 1
     2    1   30 1
     3    1   31 1
     4    1   32 1
     5    2    7 ar
     6    2    3 ar
     7    3    4 ar
     8    3   33 1
     9    4    5 ar
    10    4   34 1
    11    5    6 ar
    12    5    9 1
    13    6    7 ar
    14    6    8 1
    15    7   35 1
    16    8   36 1
    17    8   37 1
    18    8   38 1
    19    9   10 1
    20    9   16 1
    21    9   11 1
    22   11   12 2
    23   11   26 1
    24   12   13 1
    25   12   17 1
    26   13   14 am
    27   13   39 1
    28   14   15 2
    29   14   16 am
    30   16   40 1
    31   17   41 1
    32   17   42 1
    33   17   52 1
    34   18   19 1
    35   18   43 1
    36   18   44 1
    37   18   52 1
    38   19   24 ar
    39   19   20 ar
    40   20   21 ar
    41   20   45 1
    42   21   22 ar
    43   21   46 1
    44   22   23 ar
    45   22   25 1
    46   23   24 ar
    47   23   47 1
    48   24   48 1
    49   26   27 2
    50   26   28 1
    51   28   29 1
    52   29   49 1
    53   29   50 1
    54   29   51 1
    55   52   53 1
    56   52   54 1
@<TRIPOS>MOLECULE
ZINC08996030
   57    61     0     0     0
SMALL
USER_CHARGES
[(4-chlorophenyl)-hydroxy-methyl]-fluoro-tert-butyl-BLAHtrione
@<TRIPOS>ATOM
      1 C1          0.6902   -4.7500    2.9452 C.3       1 <0>        -0.1505
      2 C2          1.0510   -3.2745    3.1283 C.3       1 <0>         0.1555
      3 C3          2.5197   -3.0588    2.7577 C.3       1 <0>        -0.1679
      4 C4          0.8289   -2.8724    4.5877 C.3       1 <0>        -0.1672
      5 N1          0.2029   -2.4531    2.2609 N.am      1 <0>        -0.5559
      6 C5         -0.7282   -2.9753    1.4545 C.2       1 <0>         0.5296
      7 O1         -0.9770   -4.1567    1.3450 O.2       1 <0>        -0.4245
      8 C6         -1.4216   -1.8630    0.7005 C.3       1 <0>        -0.1337
      9 H1         -2.5007   -1.8592    0.8540 H         1 <0>         0.1809
     10 C7         -0.7173   -0.5811    1.2264 C.3       1 <0>        -0.1288
     11 H2         -1.4130    0.1282    1.6747 H         1 <0>         0.1778
     12 C8          0.2959   -1.1193    2.2109 C.2       1 <0>         0.5411
     13 O2          1.0723   -0.4468    2.8547 O.2       1 <0>        -0.4286
     14 C9          0.0021   -0.0041    0.0020 C.3       1 <0>         0.0954
     15 C10         1.4578   -0.3754   -0.0112 C.ar      1 <0>        -0.1912
     16 C11         2.1293   -1.5777   -0.0207 C.ar      1 <0>        -0.0879
     17 C12         3.5146   -1.5978   -0.0357 C.ar      1 <0>         0.1051
     18 C13         4.2202   -0.4061   -0.0385 C.ar      1 <0>        -0.0737
     19 C14         3.5498    0.7993   -0.0270 C.ar      1 <0>        -0.0877
     20 C15         2.1573    0.8275   -0.0130 C.ar      1 <0>         0.1753
     21 N2          1.2665    1.9046    0.0002 N.am      1 <0>        -0.6329
     22 C16        -0.0183    1.5002    0.0103 C.2       1 <0>         0.5406
     23 O3         -1.0011    2.2110    0.0190 O.2       1 <0>        -0.4336
     24 F1          4.1751   -2.7763   -0.0461 F         1 <0>        -0.1143
     25 C17        -1.0326   -1.9431   -0.7912 C.3       1 <0>         0.0031
     26 H3         -0.1630   -2.5871   -0.9224 H         1 <0>         0.1529
     27 C18        -2.2094   -2.4600   -1.6212 C.3       1 <0>         0.1586
     28 H4         -3.0739   -1.8142   -1.4675 H         1 <0>         0.1408
     29 C19        -1.8340   -2.4580   -3.0807 C.ar      1 <0>        -0.1683
     30 C20        -1.1477   -3.5304   -3.6192 C.ar      1 <0>        -0.0866
     31 C21        -0.8082   -3.5316   -4.9590 C.ar      1 <0>        -0.0963
     32 C22        -1.1453   -2.4541   -5.7587 C.ar      1 <0>        -0.0180
     33 C23        -1.8272   -1.3786   -5.2180 C.ar      1 <0>        -0.0995
     34 C24        -2.1712   -1.3811   -3.8793 C.ar      1 <0>        -0.1104
     35 Cl1        -0.7124   -2.4515   -7.4398 Cl        1 <0>        -0.0401
     36 O4         -2.5311   -3.7915   -1.2140 O.3       1 <0>        -0.5053
     37 H5          0.8484   -5.0364    1.9055 H         1 <0>         0.0713
     38 H6          1.3212   -5.3611    3.5905 H         1 <0>         0.0771
     39 H7         -0.3562   -4.9036    3.2091 H         1 <0>         0.0761
     40 H8          2.7768   -2.0077    2.8881 H         1 <0>         0.0735
     41 H9          3.1507   -3.6700    3.4030 H         1 <0>         0.0869
     42 H10         2.6780   -3.3453    1.7180 H         1 <0>         0.0599
     43 H11        -0.2174   -3.0260    4.8516 H         1 <0>         0.0646
     44 H12         1.4599   -3.4835    5.2330 H         1 <0>         0.0856
     45 H13         1.0860   -1.8212    4.7181 H         1 <0>         0.0742
     46 H14         1.5760   -2.5052   -0.0175 H         1 <0>         0.1394
     47 H15         5.3000   -0.4206   -0.0500 H         1 <0>         0.1658
     48 H16         4.1067    1.7246   -0.0286 H         1 <0>         0.1597
     49 H17         1.5415    2.8348    0.0022 H         1 <0>         0.4421
     50 H18        -0.8808   -4.3695   -2.9938 H         1 <0>         0.1375
     51 H19        -0.2759   -4.3715   -5.3805 H         1 <0>         0.1464
     52 H20        -2.0903   -0.5371   -5.8417 H         1 <0>         0.1463
     53 H21        -2.7031   -0.5414   -3.4570 H         1 <0>         0.1376
     54 H22        -1.8061   -4.4221   -1.3231 H         1 <0>         0.3905
     55 N3         -0.6958   -0.5619   -1.1435 N.4       1 <0>        -0.4825
     56 H23        -0.0891   -0.5448   -1.9717 H         1 <0>         0.4489
     57 H24        -1.5504   -0.0258   -1.3341 H         1 <0>         0.4451
@<TRIPOS>BOND
     1    1    2 1
     2    1   37 1
     3    1   38 1
     4    1   39 1
     5    2    3 1
     6    2    4 1
     7    2    5 1
     8    3   40 1
     9    3   41 1
    10    3   42 1
    11    4   43 1
    12    4   44 1
    13    4   45 1
    14    5   12 am
    15    5    6 am
    16    6    7 2
    17    6    8 1
    18    8    9 1
    19    8   25 1
    20    8   10 1
    21   10   11 1
    22   10   12 1
    23   10   14 1
    24   12   13 2
    25   14   22 1
    26   14   15 1
    27   14   55 1
    28   15   20 ar
    29   15   16 ar
    30   16   17 ar
    31   16   46 1
    32   17   18 ar
    33   17   24 1
    34   18   19 ar
    35   18   47 1
    36   19   20 ar
    37   19   48 1
    38   20   21 1
    39   21   22 am
    40   21   49 1
    41   22   23 2
    42   25   26 1
    43   25   27 1
    44   25   55 1
    45   27   28 1
    46   27   29 1
    47   27   36 1
    48   29   34 ar
    49   29   30 ar
    50   30   31 ar
    51   30   50 1
    52   31   32 ar
    53   31   51 1
    54   32   33 ar
    55   32   35 1
    56   33   34 ar
    57   33   52 1
    58   34   53 1
    59   36   54 1
    60   55   56 1
    61   55   57 1
@<TRIPOS>MOLECULE
ZINC36628936
   50    52     0     0     0
SMALL
USER_CHARGES

@<TRIPOS>ATOM
      1 C1         -0.0187    1.5258    0.0104 C.3       1 <0>        -0.1558
      2 C2          0.0021   -0.0041    0.0020 C.3       1 <0>        -0.1529
      3 C3          0.7182   -0.4975   -1.2568 C.3       1 <0>        -0.0094
      4 N1          0.7381   -1.9663   -1.2649 N.4       1 <0>        -0.3852
      5 C4          1.5316   -2.4382   -2.4071 C.3       1 <0>        -0.0018
      6 C5          1.8277   -3.9349   -2.2629 C.3       1 <0>        -0.0863
      7 C6          0.5075   -4.6502   -2.0128 C.2       1 <0>        -0.0387
      8 C7         -0.5802   -3.9508   -1.6160 C.2       1 <0>        -0.3345
      9 S1         -1.8557   -5.1627   -1.4545 S.3       1 <0>         0.3942
     10 C8         -0.9984   -6.5408   -1.8882 C.2       1 <0>         0.0655
     11 C9          0.2789   -6.0737   -2.1617 C.2       1 <0>        -0.2405
     12 C10         1.3512   -6.9807   -2.5827 C.2       1 <0>         0.5768
     13 O1          2.0661   -7.5060   -1.7494 O.2       1 <0>        -0.5218
     14 N2          1.5452   -7.2328   -3.8924 N.am      1 <0>        -0.8449
     15 N3         -1.4614   -7.8460   -1.9570 N.am      1 <0>        -0.6172
     16 C11        -2.7452   -8.1225   -1.6541 C.2       1 <0>         0.5162
     17 O2         -3.4956   -7.2296   -1.3213 O.2       1 <0>        -0.4643
     18 C12        -3.2484   -9.5410   -1.7288 C.3       1 <0>         0.0477
     19 O3         -4.6296   -9.5763   -1.3642 O.3       1 <0>        -0.2834
     20 C13        -5.2413  -10.7904   -1.3798 C.ar      1 <0>         0.0865
     21 C14        -4.5255  -11.9243   -1.7328 C.ar      1 <0>        -0.1827
     22 C15        -5.1491  -13.1573   -1.7480 C.ar      1 <0>        -0.0877
     23 C16        -6.4861  -13.2622   -1.4120 C.ar      1 <0>        -0.1181
     24 C17        -7.2037  -12.1342   -1.0598 C.ar      1 <0>        -0.1131
     25 C18        -6.5829  -10.8982   -1.0364 C.ar      1 <0>         0.0799
     26 F1         -7.2822   -9.7965   -0.6864 F         1 <0>        -0.1277
     27 C19        -0.6414   -2.4753   -1.3756 C.3       1 <0>         0.1034
     28 H1          1.0039    1.9031    0.0027 H         1 <0>         0.0671
     29 H2         -0.5459    1.8868   -0.8726 H         1 <0>         0.0672
     30 H3         -0.5289    1.8773    0.9072 H         1 <0>         0.0777
     31 H4          0.5293   -0.3651    0.8851 H         1 <0>         0.0871
     32 H5         -1.0205   -0.3814    0.0098 H         1 <0>         0.0871
     33 H6          0.1910   -0.1364   -2.1398 H         1 <0>         0.1324
     34 H7          1.7408   -0.1202   -1.2645 H         1 <0>         0.1342
     35 H8          0.9752   -2.2672   -3.3287 H         1 <0>         0.1337
     36 H9          2.4708   -1.8865   -2.4471 H         1 <0>         0.1390
     37 H10         2.2831   -4.3108   -3.1791 H         1 <0>         0.1221
     38 H11         2.5010   -4.0984   -1.4215 H         1 <0>         0.1092
     39 H12         0.9754   -6.8142   -4.5564 H         1 <0>         0.4048
     40 H13         2.2546   -7.8329   -4.1709 H         1 <0>         0.4103
     41 H14        -0.8612   -8.5601   -2.2231 H         1 <0>         0.4279
     42 H15        -3.1314   -9.9149   -2.7460 H         1 <0>         0.1094
     43 H16        -2.6757  -10.1662   -1.0438 H         1 <0>         0.1099
     44 H17        -3.4812  -11.8438   -1.9962 H         1 <0>         0.1369
     45 H18        -4.5913  -14.0403   -2.0231 H         1 <0>         0.1375
     46 H19        -6.9710  -14.2272   -1.4251 H         1 <0>         0.1404
     47 H20        -8.2482  -12.2187   -0.7985 H         1 <0>         0.1482
     48 H21        -1.1819   -2.2760   -0.4503 H         1 <0>         0.1432
     49 H22        -1.1470   -1.9880   -2.2093 H         1 <0>         0.1434
     50 H23         1.1519   -2.3013   -0.4078 H         1 <0>         0.4270
@<TRIPOS>BOND
     1    1    2 1
     2    1   28 1
     3    1   29 1
     4    1   30 1
     5    2    3 1
     6    2   31 1
     7    2   32 1
     8    3    4 1
     9    3   33 1
    10    3   34 1
    11    4   27 1
    12    4    5 1
    13    4   50 1
    14    5    6 1
    15    5   35 1
    16    5   36 1
    17    6    7 1
    18    6   37 1
    19    6   38 1
    20    7   11 1
    21    7    8 2
    22    8    9 1
    23    8   27 1
    24    9   10 1
    25   10   11 2
    26   10   15 1
    27   11   12 1
    28   12   13 2
    29   12   14 am
    30   14   39 1
    31   14   40 1
    32   15   16 am
    33   15   41 1
    34   16   17 2
    35   16   18 1
    36   18   19 1
    37   18   42 1
    38   18   43 1
    39   19   20 1
    40   20   25 ar
    41   20   21 ar
    42   21   22 ar
    43   21   44 1
    44   22   23 ar
    45   22   45 1
    46   23   24 ar
    47   23   46 1
    48   24   25 ar
    49   24   47 1
    50   25   26 1
    51   27   48 1
    52   27   49 1
@<TRIPOS>MOLECULE
ZINC05517472
   48    51     0     0     0
SMALL
USER_CHARGES

@<TRIPOS>ATOM
      1 C1         -0.0166    1.3764    0.0096 C.ar      1 <0>        -0.1011
      2 C2          1.1668    2.0980    0.0022 C.ar      1 <0>        -0.0390
      3 C3          2.3858    1.4470   -0.0130 C.ar      1 <0>        -0.0551
      4 C4          2.4241    0.0606   -0.0208 C.ar      1 <0>        -0.0068
      5 C5          1.2200   -0.6766   -0.0133 C.ar      1 <0>        -0.1623
      6 C6          0.0021   -0.0041    0.0020 C.ar      1 <0>        -0.0126
      7 C7          1.6135   -2.0930   -0.0247 C.cat     1 <0>         0.5940
      8 N1          2.9219   -2.1804   -0.0376 N.pl3     1 <0>        -0.5915
      9 C8          3.5017   -0.9495   -0.0365 C.2       1 <0>         0.2897
     10 N2          4.7895   -0.7035   -0.0479 N.2       1 <0>        -0.1265
     11 N3          5.7051   -1.7637   -0.0623 N.am      1 <0>        -0.5747
     12 C9          7.0289   -1.5108   -0.0740 C.2       1 <0>         0.5313
     13 O1          7.4274   -0.3654   -0.0721 O.2       1 <0>        -0.4385
     14 C10         8.0138   -2.6513   -0.0895 C.3       1 <0>         0.0526
     15 O2          9.3447   -2.1312   -0.0999 O.3       1 <0>        -0.2873
     16 C11        10.3596   -3.0341   -0.1145 C.ar      1 <0>         0.1277
     17 C12        10.0773   -4.3937   -0.1245 C.ar      1 <0>        -0.2077
     18 C13        11.1050   -5.3126   -0.1397 C.ar      1 <0>        -0.0638
     19 C14        12.4293   -4.8753   -0.1451 C.ar      1 <0>        -0.0816
     20 C15        12.7095   -3.5092   -0.1351 C.ar      1 <0>        -0.0610
     21 C16        11.6771   -2.5954   -0.1252 C.ar      1 <0>        -0.1368
     22 C17        13.5366   -5.8604   -0.1610 C.ar      1 <0>        -0.0131
     23 C18        13.2539   -7.2268   -0.1764 C.ar      1 <0>        -0.1159
     24 C19        14.2812   -8.1426   -0.1907 C.ar      1 <0>        -0.0644
     25 C20        15.6082   -7.7034   -0.1903 C.ar      1 <0>        -0.0254
     26 C21        15.8900   -6.3344   -0.1754 C.ar      1 <0>        -0.0628
     27 C22        14.8609   -5.4206   -0.1664 C.ar      1 <0>        -0.1140
     28 C23        16.6780   -8.6552   -0.2047 C.1       1 <0>         0.2456
     29 N4         17.5267   -9.4102   -0.2162 N.1       1 <0>        -0.4056
     30 N5          0.7418   -3.1637   -0.0217 N.pl3     1 <0>        -0.7517
     31 H1         -0.9618    1.8987    0.0260 H         1 <0>         0.1590
     32 H2          1.1360    3.1775    0.0079 H         1 <0>         0.1602
     33 H3          3.3043    2.0151   -0.0190 H         1 <0>         0.1601
     34 H4         -0.9243   -0.5593    0.0079 H         1 <0>         0.1528
     35 H5          5.3863   -2.6799   -0.0639 H         1 <0>         0.3940
     36 H6          7.8711   -3.2667    0.7988 H         1 <0>         0.1063
     37 H7          7.8537   -3.2576   -0.9811 H         1 <0>         0.1062
     38 H8          9.0516   -4.7317   -0.1199 H         1 <0>         0.1287
     39 H9         10.8848   -6.3699   -0.1471 H         1 <0>         0.1343
     40 H10        13.7339   -3.1674   -0.1392 H         1 <0>         0.1409
     41 H11        11.8934   -1.5373   -0.1219 H         1 <0>         0.1401
     42 H12        12.2285   -7.5658   -0.1766 H         1 <0>         0.1349
     43 H13        14.0621   -9.2000   -0.2018 H         1 <0>         0.1365
     44 H14        16.9149   -5.9938   -0.1748 H         1 <0>         0.1378
     45 H15        15.0783   -4.3627   -0.1593 H         1 <0>         0.1378
     46 H16        -0.2158   -3.0096   -0.0114 H         1 <0>         0.4515
     47 H17         1.0871   -4.0702   -0.0299 H         1 <0>         0.4353
     48 H18         3.4138   -3.0163   -0.0468 H         1 <0>         0.4416
@<TRIPOS>BOND
     1    1    6 ar
     2    1    2 ar
     3    1   31 1
     4    2    3 ar
     5    2   32 1
     6    3    4 ar
     7    3   33 1
     8    4    9 1
     9    4    5 ar
    10    5    6 ar
    11    5    7 1
    12    6   34 1
    13    7    8 2
    14    7   30 1
    15    8    9 1
    16    8   48 1
    17    9   10 2
    18   10   11 1
    19   11   12 am
    20   11   35 1
    21   12   13 2
    22   12   14 1
    23   14   15 1
    24   14   36 1
    25   14   37 1
    26   15   16 1
    27   16   21 ar
    28   16   17 ar
    29   17   18 ar
    30   17   38 1
    31   18   19 ar
    32   18   39 1
    33   19   20 ar
    34   19   22 1
    35   20   21 ar
    36   20   40 1
    37   21   41 1
    38   22   27 ar
    39   22   23 ar
    40   23   24 ar
    41   23   42 1
    42   24   25 ar
    43   24   43 1
    44   25   26 ar
    45   25   28 1
    46   26   27 ar
    47   26   44 1
    48   27   45 1
    49   28   29 3
    50   30   46 1
    51   30   47 1
@<TRIPOS>MOLECULE
ZINC64674305
   55    58     0     0     0
SMALL
USER_CHARGES

@<TRIPOS>ATOM
      1 C1         -0.0187    1.5258    0.0104 C.3       1 <0>        -0.1790
      2 C2          0.0021   -0.0041    0.0020 C.3       1 <0>         0.1452
      3 N1          0.6878   -0.4765   -1.2033 N.pl3     1 <0>        -0.6284
      4 C3          0.0954   -0.7472   -2.4374 C.ar      1 <0>         0.1713
      5 C4         -1.2356   -0.6486   -2.8387 C.ar      1 <0>        -0.1516
      6 C5         -1.5997   -0.9729   -4.1256 C.ar      1 <0>        -0.0778
      7 C6         -0.6329   -1.4037   -5.0379 C.ar      1 <0>        -0.1519
      8 C7          0.7023   -1.5038   -4.6395 C.ar      1 <0>        -0.0708
      9 C8          1.0652   -1.1765   -3.3434 C.ar      1 <0>         0.1167
     10 N2          2.3205   -1.1965   -2.7186 N.pl3     1 <0>        -0.7507
     11 C9          2.1242   -0.7457   -1.3355 C.3       1 <0>         0.3864
     12 H1          2.4257   -1.5292   -0.6403 H         1 <0>         0.0736
     13 C10         2.9267    0.5305   -1.0743 C.3       1 <0>        -0.1842
     14 C11        -1.0212   -1.7523   -6.4177 C.2       1 <0>         0.5750
     15 O1         -0.1785   -2.1270   -7.2102 O.2       1 <0>        -0.5394
     16 N3         -2.3100   -1.6555   -6.8000 N.am      1 <0>        -0.5262
     17 N4         -2.6787   -1.9865   -8.1104 N.am      1 <0>        -0.5139
     18 C12        -3.9675   -1.8897   -8.4927 C.2       1 <0>         0.5127
     19 O2         -4.8080   -1.5160   -7.7022 O.2       1 <0>        -0.5334
     20 C13        -4.3642   -2.2458   -9.9022 C.3       1 <0>        -0.1283
     21 C14        -5.8720   -2.0498  -10.0727 C.3       1 <0>        -0.0773
     22 C15        -6.2686   -2.4059  -11.4823 C.2       1 <0>         0.0717
     23 C16        -6.7444   -3.5950  -11.9174 C.ar      1 <0>        -0.1712
     24 C17        -7.0231   -4.8642  -11.2350 C.ar      1 <0>        -0.0104
     25 C18        -7.5055   -5.9033  -11.9538 C.ar      1 <0>        -0.1527
     26 C19        -7.7450   -5.7988  -13.3309 C.ar      1 <0>         0.0551
     27 C20        -7.5136   -4.6659  -14.0274 C.ar      1 <0>        -0.2109
     28 C21        -7.0062   -3.5102  -13.3719 C.ar      1 <0>         0.3272
     29 N5         -6.7041   -2.3153  -13.8187 N.pl3     1 <0>        -0.5870
     30 C22        -6.2216   -1.5041  -12.6954 C.3       1 <0>         0.0592
     31 H2          1.0039    1.9031    0.0027 H         1 <0>         0.0618
     32 H3         -0.5459    1.8868   -0.8726 H         1 <0>         0.0588
     33 H4         -0.5289    1.8773    0.9072 H         1 <0>         0.0700
     34 H5          0.5293   -0.3651    0.8851 H         1 <0>         0.0816
     35 H6         -1.0205   -0.3814    0.0098 H         1 <0>         0.0807
     36 H7         -1.9853   -0.3163   -2.1359 H         1 <0>         0.1279
     37 H8         -2.6329   -0.8948   -4.4304 H         1 <0>         0.1244
     38 H9          1.4519   -1.8365   -5.3423 H         1 <0>         0.1345
     39 H10         3.1619   -1.4563   -3.1254 H         1 <0>         0.4276
     40 H11         2.7221    0.8882   -0.0652 H         1 <0>         0.0715
     41 H12         3.9909    0.3176   -1.1754 H         1 <0>         0.0701
     42 H13         2.6389    1.2949   -1.7961 H         1 <0>         0.0646
     43 H14        -2.9822   -1.3566   -6.1678 H         1 <0>         0.4336
     44 H15        -2.0065   -2.2854   -8.7426 H         1 <0>         0.4341
     45 H16        -3.8326   -1.6019  -10.6029 H         1 <0>         0.1114
     46 H17        -4.1085   -3.2868  -10.0996 H         1 <0>         0.1119
     47 H18        -6.4035   -2.6937   -9.3720 H         1 <0>         0.1196
     48 H19        -6.1277   -1.0088   -9.8753 H         1 <0>         0.1223
     49 H20        -6.8453   -4.9670  -10.1747 H         1 <0>         0.1615
     50 H21        -7.7113   -6.8382  -11.4537 H         1 <0>         0.1577
     51 H22        -8.1301   -6.6602  -13.8564 H         1 <0>         0.1605
     52 H23        -7.7145   -4.6370  -15.0881 H         1 <0>         0.1599
     53 H24        -6.8699   -0.6406  -12.5470 H         1 <0>         0.1754
     54 H25        -5.1982   -1.1786  -12.8821 H         1 <0>         0.1738
     55 H26        -6.7892   -2.0163  -14.7375 H         1 <0>         0.4556
@<TRIPOS>BOND
     1    1    2 1
     2    1   31 1
     3    1   32 1
     4    1   33 1
     5    2    3 1
     6    2   34 1
     7    2   35 1
     8    3   11 1
     9    3    4 1
    10    4    9 ar
    11    4    5 ar
    12    5    6 ar
    13    5   36 1
    14    6    7 ar
    15    6   37 1
    16    7    8 ar
    17    7   14 1
    18    8    9 ar
    19    8   38 1
    20    9   10 1
    21   10   11 1
    22   10   39 1
    23   11   12 1
    24   11   13 1
    25   13   40 1
    26   13   41 1
    27   13   42 1
    28   14   15 2
    29   14   16 am
    30   16   17 1
    31   16   43 1
    32   17   18 am
    33   17   44 1
    34   18   19 2
    35   18   20 1
    36   20   21 1
    37   20   45 1
    38   20   46 1
    39   21   22 1
    40   21   47 1
    41   21   48 1
    42   22   30 1
    43   22   23 2
    44   23   28 ar
    45   23   24 ar
    46   24   25 ar
    47   24   49 1
    48   25   26 ar
    49   25   50 1
    50   26   27 ar
    51   26   51 1
    52   27   28 ar
    53   27   52 1
    54   28   29 2
    55   29   30 1
    56   29   55 1
    57   30   53 1
    58   30   54 1
@<TRIPOS>MOLECULE
ZINC03358938
   46    48     0     0     0
SMALL
USER_CHARGES
4-acetyl-N-(3-carbamoyl-4,5,6,7-tetrahydrobenzothiophen-2-yl)-3,5-dimethyl-1H-pyrrole-2-carboxamide
@<TRIPOS>ATOM
      1 C1         -3.0234   -0.2240    0.3215 C.3       1 <0>        -0.1011
      2 C2         -2.6086    1.2160    0.1617 C.2       1 <0>        -0.0097
      3 C3         -3.4602    2.3117   -0.1176 C.2       1 <0>        -0.2580
      4 C4         -2.6584    3.4406   -0.1846 C.2       1 <0>         0.1164
      5 N1         -1.3895    3.0714    0.0444 N.pl3     1 <0>        -0.5281
      6 H1         -0.6247    3.6680    0.0549 H         1 <0>         0.4187
      7 C5         -1.3429    1.7111    0.2621 C.2       1 <0>        -0.0707
      8 C6         -0.1346    0.9280    0.5472 C.2       1 <0>         0.5889
      9 O1         -0.2155   -0.2734    0.7224 O.2       1 <0>        -0.4823
     10 N2          1.0652    1.5388    0.6094 N.am      1 <0>        -0.6228
     11 C7          2.2062    0.7990    0.8728 C.2       1 <0>         0.0717
     12 C8          3.5182    1.2419    0.9698 C.2       1 <0>        -0.2280
     13 C9          4.5412    0.2520    1.2613 C.2       1 <0>        -0.0664
     14 C10         4.0933   -1.0149    1.3983 C.2       1 <0>        -0.2067
     15 S1          2.3433   -0.9053    1.1537 S.3       1 <0>         0.2385
     16 C11         4.9105   -2.2350    1.6922 C.3       1 <0>        -0.0367
     17 C12         6.3885   -1.8979    1.4467 C.3       1 <0>        -0.1142
     18 C13         6.7131   -0.5704    2.1378 C.3       1 <0>        -0.1198
     19 C14         6.0222    0.5805    1.4041 C.3       1 <0>        -0.0611
     20 C15         3.8586    2.6562    0.7883 C.2       1 <0>         0.5836
     21 O2          3.8685    3.4075    1.7459 O.2       1 <0>        -0.5330
     22 N3          4.1605    3.1246   -0.4389 N.am      1 <0>        -0.8482
     23 C16        -3.1317    4.8431   -0.4673 C.3       1 <0>        -0.1020
     24 C17        -4.9132    2.2612   -0.3071 C.2       1 <0>         0.4333
     25 O3         -5.6522    2.3055    0.6541 O.2       1 <0>        -0.4447
     26 C18        -5.4888    2.1543   -1.6957 C.3       1 <0>        -0.1886
     27 H2         -3.2630   -0.4193    1.3668 H         1 <0>         0.0784
     28 H3         -3.9006   -0.4200   -0.2951 H         1 <0>         0.0664
     29 H4         -2.2065   -0.8743    0.0084 H         1 <0>         0.0893
     30 H5          1.1297    2.4966    0.4697 H         1 <0>         0.4114
     31 H6          4.7690   -2.5300    2.7319 H         1 <0>         0.0836
     32 H7          4.6048   -3.0488    1.0348 H         1 <0>         0.0822
     33 H8          7.0166   -2.6876    1.8589 H         1 <0>         0.0745
     34 H9          6.5698   -1.8085    0.3756 H         1 <0>         0.0682
     35 H10         6.3631   -0.6042    3.1695 H         1 <0>         0.0678
     36 H11         7.7912   -0.4103    2.1262 H         1 <0>         0.0706
     37 H12         6.1389    1.5009    1.9763 H         1 <0>         0.0748
     38 H13         6.4680    0.7047    0.4173 H         1 <0>         0.0767
     39 H14         4.1526    2.5258   -1.2020 H         1 <0>         0.4040
     40 H15         4.3857    4.0604   -0.5590 H         1 <0>         0.4032
     41 H16        -3.1572    5.0078   -1.5445 H         1 <0>         0.0894
     42 H17        -4.1316    4.9792   -0.0551 H         1 <0>         0.0901
     43 H18        -2.4486    5.5568   -0.0067 H         1 <0>         0.0779
     44 H19        -5.1702    1.3089   -2.1244 H         1 <0>         0.0849
     45 H20        -6.5772    2.1447   -1.6382 H         1 <0>         0.0850
     46 H21        -5.1639    3.0081   -2.2904 H         1 <0>         0.0928
@<TRIPOS>BOND
     1    1    2 1
     2    1   27 1
     3    1   28 1
     4    1   29 1
     5    2    7 2
     6    2    3 1
     7    3    4 2
     8    3   24 1
     9    4    5 1
    10    4   23 1
    11    5    6 1
    12    5    7 1
    13    7    8 1
    14    8    9 2
    15    8   10 am
    16   10   11 1
    17   10   30 1
    18   11   15 1
    19   11   12 2
    20   12   13 1
    21   12   20 1
    22   13   19 1
    23   13   14 2
    24   14   15 1
    25   14   16 1
    26   16   17 1
    27   16   31 1
    28   16   32 1
    29   17   18 1
    30   17   33 1
    31   17   34 1
    32   18   19 1
    33   18   35 1
    34   18   36 1
    35   19   37 1
    36   19   38 1
    37   20   21 2
    38   20   22 am
    39   22   39 1
    40   22   40 1
    41   23   41 1
    42   23   42 1
    43   23   43 1
    44   24   25 2
    45   24   26 1
    46   26   44 1
    47   26   45 1
    48   26   46 1
@<TRIPOS>MOLECULE
ZINC27753962
   45    47     0     0     0
SMALL
USER_CHARGES
(4S,5S,6S)-4-hydroxy-6-(4-hydroxyphenyl)-4-(p-tolyl)-5-(2,2,2-trifluoroacetyl)hexahydropyrimidin-2-one
@<TRIPOS>ATOM
      1 C1          4.0814    1.1743    5.1847 C.3       1 <0>        -0.1228
      2 C2          2.8182    1.7932    4.6440 C.ar      1 <0>        -0.0650
      3 C3          2.8079    3.1217    4.2620 C.ar      1 <0>        -0.1207
      4 C4          1.6494    3.6892    3.7655 C.ar      1 <0>        -0.0691
      5 C5          0.5009    2.9284    3.6514 C.ar      1 <0>        -0.1156
      6 C6          0.5096    1.6014    4.0387 C.ar      1 <0>        -0.1052
      7 C7          1.6696    1.0325    4.5303 C.ar      1 <0>        -0.1179
      8 C8         -0.7623    3.5472    3.1106 C.3       1 <0>         0.4261
      9 C9         -0.8056    3.3756    1.5884 C.3       1 <0>        -0.1664
     10 H1          0.0279    3.9163    1.1163 H         1 <0>         0.1375
     11 C10        -2.1482    3.9073    1.0756 C.3       1 <0>         0.2092
     12 H2         -2.2526    4.9850    1.2694 H         1 <0>         0.1022
     13 N1         -3.2354    3.2232    1.7776 N.am      1 <0>        -0.7465
     14 C11        -3.0774    2.7611    3.0269 C.2       1 <0>         0.7227
     15 O1         -4.0160    2.2098    3.5686 O.2       1 <0>        -0.5867
     16 N2         -1.9250    2.8834    3.7024 N.am      1 <0>        -0.7496
     17 C12        -2.2606    3.6475   -0.4046 C.ar      1 <0>        -0.1671
     18 C13        -2.7445    2.4341   -0.8575 C.ar      1 <0>        -0.0694
     19 C14        -2.8538    2.1956   -2.2138 C.ar      1 <0>        -0.1555
     20 C15        -2.4664    3.1704   -3.1218 C.ar      1 <0>         0.1734
     21 C16        -1.9758    4.3850   -2.6648 C.ar      1 <0>        -0.2101
     22 C17        -1.8742    4.6209   -1.3074 C.ar      1 <0>        -0.0530
     23 O2         -2.5668    2.9358   -4.4566 O.3       1 <0>        -0.5071
     24 C18        -0.6730    1.9155    1.2398 C.2       1 <0>         0.3416
     25 O3         -1.4959    1.1238    1.6326 O.2       1 <0>        -0.3497
     26 C19         0.4864    1.4434    0.4008 C.3       1 <0>         0.4182
     27 F1          0.4603    0.0475    0.3125 F         1 <0>        -0.1613
     28 F2          1.6868    1.8509    0.9928 F         1 <0>        -0.1598
     29 F3          0.3886    1.9937   -0.8817 F         1 <0>        -0.1602
     30 O4         -0.7910    4.9385    3.4354 O.3       1 <0>        -0.5716
     31 H3          4.8819    1.9286    5.1999 H         1 <0>         0.0688
     32 H4          4.3820    0.3336    4.5421 H         1 <0>         0.0737
     33 H5          3.9024    0.8090    6.2067 H         1 <0>         0.0740
     34 H6          3.7052    3.7161    4.3512 H         1 <0>         0.1285
     35 H7          1.6414    4.7271    3.4671 H         1 <0>         0.1340
     36 H8         -0.3889    1.0081    3.9537 H         1 <0>         0.1271
     37 H9          1.6775   -0.0054    4.8290 H         1 <0>         0.1278
     38 H10        -4.2062    3.0793    1.2808 H         1 <0>         0.4451
     39 H11        -1.8644    2.4726    4.7210 H         1 <0>         0.4439
     40 H12        -3.0411    1.6736   -0.1503 H         1 <0>         0.1312
     41 H13        -3.2356    1.2491   -2.5671 H         1 <0>         0.1319
     42 H14        -1.6733    5.1453   -3.3696 H         1 <0>         0.1324
     43 H15        -1.4924    5.5662   -0.9511 H         1 <0>         0.1307
     44 H16        -2.2594    3.7094   -5.1757 H         1 <0>         0.4376
     45 H17        -1.6427    5.5593    3.1206 H         1 <0>         0.4127
@<TRIPOS>BOND
     1    1    2 1
     2    1   31 1
     3    1   32 1
     4    1   33 1
     5    2    7 ar
     6    2    3 ar
     7    3    4 ar
     8    3   34 1
     9    4    5 ar
    10    4   35 1
    11    5    6 ar
    12    5    8 1
    13    6    7 ar
    14    6   36 1
    15    7   37 1
    16    8   16 1
    17    8    9 1
    18    8   30 1
    19    9   10 1
    20    9   11 1
    21    9   24 1
    22   11   12 1
    23   11   13 1
    24   11   17 1
    25   13   14 am
    26   13   38 1
    27   14   15 2
    28   14   16 am
    29   16   39 1
    30   17   22 ar
    31   17   18 ar
    32   18   19 ar
    33   18   40 1
    34   19   20 ar
    35   19   41 1
    36   20   21 ar
    37   20   23 1
    38   21   22 ar
    39   21   42 1
    40   22   43 1
    41   23   44 1
    42   24   25 2
    43   24   26 1
    44   26   27 1
    45   26   28 1
    46   26   29 1
    47   30   45 1
@<TRIPOS>MOLECULE
ZINC40378678
   32    33     0     0     0
SMALL
USER_CHARGES

@<TRIPOS>ATOM
      1 C1          0.1480    1.1285    1.1658 C.ar      1 <0>        -0.0331
      2 C2          1.3290    1.8363    1.1476 C.ar      1 <0>        -0.1530
      3 C3          2.4540    1.2991    0.5329 C.ar      1 <0>         0.1447
      4 C4          2.3919    0.0463   -0.0660 C.ar      1 <0>        -0.1522
      5 C5          1.2145   -0.6677   -0.0525 C.ar      1 <0>        -0.0645
      6 C6          0.0815   -0.1315    0.5652 C.ar      1 <0>        -0.1548
      7 C7         -1.1821   -0.8937    0.5829 C.2       1 <0>         0.5682
      8 O1         -2.1671   -0.4255    1.1205 O.2       1 <0>        -0.5032
      9 N1         -1.2442   -2.1088    0.0031 N.am      1 <0>        -0.6722
     10 C8         -2.4127   -2.8716    0.1012 C.ar      1 <0>         0.2373
     11 C9         -3.6532   -2.2472    0.1054 C.ar      1 <0>        -0.1381
     12 C10        -4.8050   -3.0030    0.2024 C.ar      1 <0>         0.0184
     13 C11        -4.7245   -4.3806    0.2953 C.ar      1 <0>        -0.6906
     14 C12        -3.4915   -5.0061    0.2914 C.ar      1 <0>         0.0329
     15 C13        -2.3351   -4.2562    0.1888 C.ar      1 <0>        -0.1481
     16 Br1        -0.6493   -5.1127    0.1752 Br        1 <0>        -0.0264
     17 S1         -6.1968   -5.3407    0.4194 S.o2      1 <0>         2.7053
     18 O2         -5.8323   -6.5643    1.0431 O.2       1 <0>        -0.9585
     19 O3         -7.1973   -4.4830    0.9511 O.2       1 <0>        -0.9573
     20 N2         -6.6672   -5.7174   -1.1231 N.pl3     1 <0>        -1.2489
     21 O4          3.6161    1.9999    0.5170 O.3       1 <0>        -0.4964
     22 H1         -0.7244    1.5447    1.6475 H         1 <0>         0.1450
     23 H2          1.3812    2.8104    1.6112 H         1 <0>         0.1414
     24 H3          3.2681   -0.3675   -0.5429 H         1 <0>         0.1401
     25 H4          1.1669   -1.6407   -0.5187 H         1 <0>         0.1300
     26 H5         -0.4787   -2.4544   -0.4822 H         1 <0>         0.4173
     27 H6         -3.7171   -1.1715    0.0333 H         1 <0>         0.1618
     28 H7         -5.7698   -2.5177    0.2060 H         1 <0>         0.1565
     29 H8         -3.4321   -6.0820    0.3641 H         1 <0>         0.1586
     30 H9         -6.1440   -5.4077   -1.8789 H         1 <0>         0.4172
     31 H10        -7.4658   -6.2477   -1.2707 H         1 <0>         0.4228
     32 H11         4.1902    1.8267    1.2757 H         1 <0>         0.3998
@<TRIPOS>BOND
     1    1    6 ar
     2    1    2 ar
     3    1   22 1
     4    2    3 ar
     5    2   23 1
     6    3    4 ar
     7    3   21 1
     8    4    5 ar
     9    4   24 1
    10    5    6 ar
    11    5   25 1
    12    6    7 1
    13    7    8 2
    14    7    9 am
    15    9   10 1
    16    9   26 1
    17   10   15 ar
    18   10   11 ar
    19   11   12 ar
    20   11   27 1
    21   12   13 ar
    22   12   28 1
    23   13   14 ar
    24   13   17 1
    25   14   15 ar
    26   14   29 1
    27   15   16 1
    28   17   18 2
    29   17   19 2
    30   17   20 1
    31   20   30 1
    32   20   31 1
    33   21   32 1
@<TRIPOS>MOLECULE
ZINC49300439
   46    47     0     0     0
SMALL
USER_CHARGES

@<TRIPOS>ATOM
      1 C1         -1.1568    1.3061    0.1977 C.3       1 <0>        -0.1241
      2 C2         -0.5359   -0.0640    0.1062 C.ar      1 <0>        -0.0450
      3 C3         -0.5783   -0.7728   -1.0943 C.ar      1 <0>        -0.1253
      4 C4         -0.0006   -2.0411   -1.1715 C.ar      1 <0>        -0.0952
      5 C5          0.6098   -2.5903   -0.0619 C.ar      1 <0>        -0.1112
      6 C6          0.6517   -1.8886    1.1279 C.ar      1 <0>        -0.1036
      7 C7          0.0846   -0.6219    1.2136 C.ar      1 <0>         0.1309
      8 N1          0.1350    0.0865    2.4173 N.am      1 <0>        -0.6350
      9 C8          0.3395   -0.5691    3.5770 C.2       1 <0>         0.5086
     10 O1          0.3860   -1.7820    3.5884 O.2       1 <0>        -0.4933
     11 C9          0.5090    0.1967    4.8479 C.2       1 <0>         0.5149
     12 O2          0.4625    1.4094    4.8365 O.2       1 <0>        -0.5077
     13 N2          0.7135   -0.4589    6.0076 N.am      1 <0>        -0.6924
     14 C10         0.8797    0.2923    7.2543 C.3       1 <0>         0.2365
     15 H1          1.4107    1.2221    7.0502 H         1 <0>         0.1154
     16 C11         1.6709   -0.5328    8.2363 C.2       1 <0>        -0.1625
     17 C12         2.6369   -0.1367    9.1007 C.2       1 <0>        -0.1349
     18 C13         3.2327   -1.0791    9.9178 C.2       1 <0>        -0.1582
     19 C14         2.8334   -2.3714    9.8304 C.2       1 <0>        -0.1667
     20 S1          1.5737   -2.2842    8.5684 S.3       1 <0>         0.0508
     21 C15        -0.4952    0.6094    7.8459 C.3       1 <0>        -0.1032
     22 C16        -1.1902   -0.6930    8.2477 C.3       1 <0>        -0.1592
     23 C17        -0.3269    1.4992    9.0791 C.3       1 <0>        -0.1469
     24 C18        -1.2336   -0.1828   -2.2812 C.2       1 <0>         0.5642
     25 O3         -1.6237    0.9680   -2.2510 O.2       1 <0>        -0.5313
     26 N3         -1.3983   -0.9210   -3.3967 N.am      1 <0>        -0.8500
     27 H2         -0.4555    2.0489   -0.1825 H         1 <0>         0.0815
     28 H3         -2.0703    1.3314   -0.3964 H         1 <0>         0.1015
     29 H4         -1.3936    1.5290    1.2380 H         1 <0>         0.0555
     30 H5         -0.0314   -2.5930   -2.0993 H         1 <0>         0.1295
     31 H6          1.0559   -3.5719   -0.1236 H         1 <0>         0.1361
     32 H7          1.1301   -2.3237    1.9929 H         1 <0>         0.1586
     33 H8          0.0228    1.0500    2.4181 H         1 <0>         0.4262
     34 H9          0.7506   -1.4281    6.0168 H         1 <0>         0.4142
     35 H10         2.9368    0.8997    9.1501 H         1 <0>         0.1363
     36 H11         4.0051   -0.7900   10.6151 H         1 <0>         0.1372
     37 H12         3.1836   -3.2304   10.3836 H         1 <0>         0.1878
     38 H13        -1.0994    1.1293    7.1025 H         1 <0>         0.0860
     39 H14        -0.5859   -1.2129    8.9911 H         1 <0>         0.0664
     40 H15        -2.1697   -0.4671    8.6692 H         1 <0>         0.0623
     41 H16        -1.3101   -1.3269    7.3692 H         1 <0>         0.0546
     42 H17         0.2774    0.9793    9.8225 H         1 <0>         0.0604
     43 H18         0.1682    2.4271    8.7928 H         1 <0>         0.0592
     44 H19        -1.3064    1.7251    9.5005 H         1 <0>         0.0627
     45 H20        -1.0870   -1.8394   -3.4209 H         1 <0>         0.4013
     46 H21        -1.8282   -0.5340   -4.1754 H         1 <0>         0.4070
@<TRIPOS>BOND
     1    1    2 1
     2    1   27 1
     3    1   28 1
     4    1   29 1
     5    2    7 ar
     6    2    3 ar
     7    3    4 ar
     8    3   24 1
     9    4    5 ar
    10    4   30 1
    11    5    6 ar
    12    5   31 1
    13    6    7 ar
    14    6   32 1
    15    7    8 1
    16    8    9 am
    17    8   33 1
    18    9   10 2
    19    9   11 1
    20   11   12 2
    21   11   13 am
    22   13   14 1
    23   13   34 1
    24   14   15 1
    25   14   16 1
    26   14   21 1
    27   16   20 1
    28   16   17 2
    29   17   18 1
    30   17   35 1
    31   18   19 2
    32   18   36 1
    33   19   20 1
    34   19   37 1
    35   21   22 1
    36   21   23 1
    37   21   38 1
    38   22   39 1
    39   22   40 1
    40   22   41 1
    41   23   42 1
    42   23   43 1
    43   23   44 1
    44   24   25 2
    45   24   26 am
    46   26   45 1
    47   26   46 1
@<TRIPOS>MOLECULE
ZINC65201235
   43    45     0     0     0
SMALL
USER_CHARGES

@<TRIPOS>ATOM
      1 C1         -0.0167    1.3786    0.0096 C.ar      1 <0>        -0.1395
      2 C2          1.1697    2.0894    0.0021 C.ar      1 <0>        -0.0777
      3 C3          2.3777    1.4203   -0.0128 C.ar      1 <0>        -0.1516
      4 C4          2.3998    0.0318   -0.0205 C.ar      1 <0>         0.1756
      5 C5          1.2069   -0.6787   -0.0132 C.ar      1 <0>        -0.1121
      6 C6          0.0021   -0.0041    0.0020 C.ar      1 <0>        -0.0669
      7 C7          1.2313   -2.1851   -0.0223 C.3       1 <0>        -0.0509
      8 C8          2.4429   -2.6813    0.7675 C.3       1 <0>        -0.1360
      9 C9          3.6795   -1.9471    0.3241 C.2       1 <0>         0.5181
     10 O1          4.7428   -2.5298    0.2902 O.2       1 <0>        -0.5176
     11 N1          3.6193   -0.6519   -0.0360 N.am      1 <0>        -0.6596
     12 C10         1.3227   -2.6771   -1.4438 C.2       1 <0>         0.5145
     13 O2          1.3639   -1.8826   -2.3591 O.2       1 <0>        -0.5071
     14 N2          1.3587   -4.0003   -1.6979 N.am      1 <0>        -0.5297
     15 N3          1.4436   -4.4577   -3.0193 N.am      1 <0>        -0.5303
     16 C11         1.4796   -5.7809   -3.2734 C.2       1 <0>         0.7149
     17 O3          1.5533   -6.1779   -4.4203 O.2       1 <0>        -0.5635
     18 N4          1.4338   -6.6639   -2.2562 N.am      1 <0>        -0.7439
     19 C12         1.4729   -8.1021   -2.5324 C.3       1 <0>         0.1395
     20 C13         1.4076   -8.8764   -1.2144 C.3       1 <0>        -0.0459
     21 C14         1.4478  -10.3559   -1.4985 C.2       1 <0>        -0.1472
     22 C15         2.5213  -11.1782   -1.5922 C.2       1 <0>        -0.1491
     23 C16         2.3175  -12.5182   -1.8634 C.2       1 <0>        -0.1584
     24 C17         1.0502  -12.9703   -2.0277 C.2       1 <0>        -0.1688
     25 S1          0.0935  -11.4816   -1.7913 S.3       1 <0>         0.0397
     26 H1         -0.9598    1.9045    0.0260 H         1 <0>         0.1294
     27 H2          1.1514    3.1692    0.0076 H         1 <0>         0.1313
     28 H3          3.3038    1.9760   -0.0189 H         1 <0>         0.1309
     29 H4         -0.9259   -0.5565    0.0080 H         1 <0>         0.1303
     30 H5          0.3185   -2.5659    0.4357 H         1 <0>         0.1326
     31 H6          2.2789   -2.5052    1.8306 H         1 <0>         0.1259
     32 H7          2.5747   -3.7495    0.5950 H         1 <0>         0.1120
     33 H8          4.4274   -0.1894   -0.3078 H         1 <0>         0.4149
     34 H9          1.3257   -4.6358   -0.9658 H         1 <0>         0.4185
     35 H10         1.4766   -3.8222   -3.7514 H         1 <0>         0.4448
     36 H11         1.3750   -6.3471   -1.3413 H         1 <0>         0.3911
     37 H12         0.6223   -8.3754   -3.1568 H         1 <0>         0.0762
     38 H13         2.3989   -8.3472   -3.0524 H         1 <0>         0.0770
     39 H14         2.2582   -8.6031   -0.5900 H         1 <0>         0.0949
     40 H15         0.4815   -8.6313   -0.6945 H         1 <0>         0.0878
     41 H16         3.5208  -10.7922   -1.4573 H         1 <0>         0.1341
     42 H17         3.1555  -13.1948   -1.9436 H         1 <0>         0.1351
     43 H18         0.7079  -13.9719   -2.2420 H         1 <0>         0.1866
@<TRIPOS>BOND
     1    1    6 ar
     2    1    2 ar
     3    1   26 1
     4    2    3 ar
     5    2   27 1
     6    3    4 ar
     7    3   28 1
     8    4   11 1
     9    4    5 ar
    10    5    6 ar
    11    5    7 1
    12    6   29 1
    13    7    8 1
    14    7   12 1
    15    7   30 1
    16    8    9 1
    17    8   31 1
    18    8   32 1
    19    9   10 2
    20    9   11 am
    21   11   33 1
    22   12   13 2
    23   12   14 am
    24   14   15 1
    25   14   34 1
    26   15   16 am
    27   15   35 1
    28   16   17 2
    29   16   18 am
    30   18   19 1
    31   18   36 1
    32   19   20 1
    33   19   37 1
    34   19   38 1
    35   20   21 1
    36   20   39 1
    37   20   40 1
    38   21   25 1
    39   21   22 2
    40   22   23 1
    41   22   41 1
    42   23   24 2
    43   23   42 1
    44   24   25 1
    45   24   43 1
@<TRIPOS>MOLECULE
ZINC00755768
   37    39     0     0     0
SMALL
USER_CHARGES
2,7-diamino-4-(5-bromo-2-methoxy-phenyl)-4H-chromene-3-carbonitrile
@<TRIPOS>ATOM
      1 C1         -3.3392   -2.5094   -0.8048 C.3       1 <0>         0.0243
      2 O1         -2.2183   -1.6678   -0.5266 O.3       1 <0>        -0.3093
      3 C2         -1.4349   -1.3153   -1.5799 C.ar      1 <0>         0.1499
      4 C3         -1.7417   -1.7664   -2.8556 C.ar      1 <0>        -0.2018
      5 C4         -0.9410   -1.4117   -3.9237 C.ar      1 <0>        -0.0515
      6 C5          0.1637   -0.6032   -3.7228 C.ar      1 <0>        -0.1261
      7 C6          0.4683   -0.1481   -2.4527 C.ar      1 <0>        -0.0348
      8 C7         -0.3303   -0.5002   -1.3816 C.ar      1 <0>        -0.0983
      9 C8          0.0021   -0.0041    0.0020 C.3       1 <0>         0.0985
     10 H1         -0.7410   -0.3791    0.7058 H         1 <0>         0.1044
     11 C9          1.3643   -0.5085    0.3990 C.ar      1 <0>        -0.1794
     12 C10         1.5134   -1.8269    0.7926 C.ar      1 <0>        -0.0261
     13 C11         2.7539   -2.3074    1.1607 C.ar      1 <0>        -0.2043
     14 C12         3.8596   -1.4658    1.1362 C.ar      1 <0>         0.2474
     15 C13         3.7128   -0.1443    0.7414 C.ar      1 <0>        -0.2065
     16 C14         2.4634    0.3360    0.3719 C.ar      1 <0>         0.1637
     17 O2          2.3367    1.6304   -0.0114 O.3       1 <0>        -0.2456
     18 C15         1.1286    2.2183    0.0032 C.2       1 <0>         0.4401
     19 C16        -0.0183    1.4986    0.0103 C.2       1 <0>        -0.2771
     20 C17        -1.2761    2.1831    0.0199 C.1       1 <0>         0.2745
     21 N1         -2.2738    2.7262    0.0275 N.1       1 <0>        -0.4481
     22 N2          1.0549    3.5889    0.0106 N.pl3     1 <0>        -0.8314
     23 N3          5.1159   -1.9498    1.5080 N.pl3     1 <0>        -0.8711
     24 Br1         1.2589   -0.1202   -5.1868 Br        1 <0>        -0.0519
     25 H2         -4.0034   -2.0089   -1.5094 H         1 <0>         0.0572
     26 H3         -2.9908   -3.4473   -1.2375 H         1 <0>         0.0587
     27 H4         -3.8783   -2.7142    0.1201 H         1 <0>         0.1034
     28 H5         -2.6037   -2.3979   -3.0127 H         1 <0>         0.1376
     29 H6         -1.1772   -1.7660   -4.9162 H         1 <0>         0.1348
     30 H7          1.3309    0.4832   -2.2981 H         1 <0>         0.1329
     31 H8          0.6553   -2.4824    0.8122 H         1 <0>         0.1323
     32 H9          2.8652   -3.3368    1.4679 H         1 <0>         0.1283
     33 H10         4.5707    0.5115    0.7215 H         1 <0>         0.1347
     34 H11         0.1900    4.0280    0.0208 H         1 <0>         0.4251
     35 H12         1.8676    4.1183    0.0057 H         1 <0>         0.4110
     36 H13         5.2174   -2.8742    1.7836 H         1 <0>         0.4031
     37 H14         5.8869   -1.3614    1.4905 H         1 <0>         0.4011
@<TRIPOS>BOND
     1    1    2 1
     2    1   25 1
     3    1   26 1
     4    1   27 1
     5    2    3 1
     6    3    8 ar
     7    3    4 ar
     8    4    5 ar
     9    4   28 1
    10    5    6 ar
    11    5   29 1
    12    6    7 ar
    13    6   24 1
    14    7    8 ar
    15    7   30 1
    16    8    9 1
    17    9   10 1
    18    9   19 1
    19    9   11 1
    20   11   16 ar
    21   11   12 ar
    22   12   13 ar
    23   12   31 1
    24   13   14 ar
    25   13   32 1
    26   14   15 ar
    27   14   23 1
    28   15   16 ar
    29   15   33 1
    30   16   17 1
    31   17   18 1
    32   18   19 2
    33   18   22 1
    34   19   20 1
    35   20   21 3
    36   22   34 1
    37   22   35 1
    38   23   36 1
    39   23   37 1
@<TRIPOS>MOLECULE
ZINC13746998
   29    29     0     0     0
SMALL
USER_CHARGES
[(2,3-dibromo-5-ethoxy-4-hydroxy-phenyl)methyleneamino]urea
@<TRIPOS>ATOM
      1 C1          5.9840   -4.9751   -0.0862 C.3       1 <0>        -0.1538
      2 C2          4.7613   -4.0554   -0.0679 C.3       1 <0>         0.0478
      3 O1          3.5708   -4.8458   -0.0609 O.3       1 <0>        -0.2950
      4 C3          2.3862   -4.1778   -0.0446 C.ar      1 <0>         0.1315
      5 C4          2.3727   -2.7954   -0.0415 C.ar      1 <0>        -0.1546
      6 C5          1.1545   -2.1116   -0.0203 C.ar      1 <0>         0.0146
      7 C6         -0.0454   -2.8287   -0.0127 C.ar      1 <0>        -0.0673
      8 C7         -0.0237   -4.2092   -0.0208 C.ar      1 <0>        -0.0671
      9 C8          1.1874   -4.8868   -0.0369 C.ar      1 <0>         0.1241
     10 O2          1.2036   -6.2463   -0.0458 O.3       1 <0>        -0.4663
     11 Br1        -1.6473   -5.1785   -0.0105 Br        1 <0>         0.0063
     12 Br2        -1.6973   -1.9087    0.0080 Br        1 <0>         0.0129
     13 C9          1.1345   -0.6375   -0.0122 C.2       1 <0>         0.0924
     14 N1          0.0021   -0.0041    0.0020 N.2       1 <0>        -0.2117
     15 N2         -0.0169    1.3968    0.0097 N.am      1 <0>        -0.5857
     16 C10        -1.1931    2.0547    0.0189 C.2       1 <0>         0.7364
     17 O3         -1.2096    3.2706    0.0256 O.2       1 <0>        -0.5792
     18 N3         -2.3511    1.3651    0.0206 N.am      1 <0>        -0.8495
     19 H1          6.8920   -4.3722   -0.0915 H         1 <0>         0.0826
     20 H2          5.9745   -5.6098    0.7999 H         1 <0>         0.0695
     21 H3          5.9564   -5.5984   -0.9799 H         1 <0>         0.0687
     22 H4          4.7708   -3.4207   -0.9540 H         1 <0>         0.0678
     23 H5          4.7889   -3.4321    0.8258 H         1 <0>         0.0683
     24 H6          3.3019   -2.2452   -0.0519 H         1 <0>         0.1546
     25 H7          1.1997   -6.6339   -0.9317 H         1 <0>         0.3969
     26 H8          2.0623   -0.0848   -0.0181 H         1 <0>         0.1374
     27 H9          0.8164    1.8932    0.0044 H         1 <0>         0.4029
     28 H10        -2.3379    0.3952    0.0153 H         1 <0>         0.3996
     29 H11        -3.1976    1.8386    0.0272 H         1 <0>         0.4158
@<TRIPOS>BOND
     1    1    2 1
     2    1   19 1
     3    1   20 1
     4    1   21 1
     5    2    3 1
     6    2   22 1
     7    2   23 1
     8    3    4 1
     9    4    9 ar
    10    4    5 ar
    11    5    6 ar
    12    5   24 1
    13    6    7 ar
    14    6   13 1
    15    7    8 ar
    16    7   12 1
    17    8    9 ar
    18    8   11 1
    19    9   10 1
    20   10   25 1
    21   13   14 2
    22   13   26 1
    23   14   15 1
    24   15   16 am
    25   15   27 1
    26   16   17 2
    27   16   18 am
    28   18   28 1
    29   18   29 1
@<TRIPOS>MOLECULE
ZINC05920782
   61    63     0     0     0
SMALL
USER_CHARGES

@<TRIPOS>ATOM
      1 C1         -0.0728    1.5193    0.5178 C.3       1 <0>        -0.1525
      2 C2         -0.0632   -0.0030    0.4188 C.3       1 <0>        -0.0959
      3 H1         -1.0806   -0.3382    0.7221 H         1 <0>         0.0650
      4 C3          0.1096   -0.4253   -1.0382 C.3       1 <0>        -0.1105
      5 C4          1.5732   -0.3034   -1.4742 C.3       1 <0>        -0.1139
      6 C5          2.4109   -1.1979   -0.5612 C.3       1 <0>        -0.0610
      7 H2          1.8744   -2.1801   -0.5299 H         1 <0>         0.0735
      8 C6          2.3730   -0.6564    0.8606 C.3       1 <0>        -0.0243
      9 C7          0.9206   -0.6744    1.3496 C.3       1 <0>         0.1347
     10 C8          0.8408   -0.1053    2.7811 C.3       1 <0>        -0.1509
     11 C9         -0.4364   -0.8127    3.3125 C.3       1 <0>        -0.1513
     12 C10        -0.3464   -2.1939    2.6318 C.3       1 <0>         0.1188
     13 O1          0.5351   -2.0633    1.5094 O.3       1 <0>        -0.3451
     14 C11        -1.7351   -2.6436    2.1743 C.3       1 <0>        -0.1208
     15 C12        -2.6938   -2.6308    3.3666 C.3       1 <0>         0.0781
     16 O2         -3.9611   -3.1546    2.9645 O.3       1 <0>        -0.5721
     17 C13         0.2195   -3.2163    3.6236 C.3       1 <0>         0.0747
     18 O3          0.2085   -4.5149    3.0273 O.3       1 <0>        -0.5589
     19 C14         3.2013   -1.5803    1.7667 C.3       1 <0>        -0.1081
     20 C15         4.6366   -1.6541    1.2490 C.3       1 <0>        -0.1521
     21 C16         4.6569   -2.2686   -0.1448 C.3       1 <0>         0.1256
     22 H3          4.2892   -3.2987   -0.0898 H         1 <0>         0.0446
     23 C17         3.7842   -1.4844   -1.1251 C.3       1 <0>        -0.0307
     24 C18         4.5139   -0.2192   -1.5755 C.3       1 <0>        -0.1329
     25 C19         3.6166   -2.3822   -2.3755 C.3       1 <0>         0.0786
     26 O4          4.9014   -2.6700   -2.9310 O.3       1 <0>        -0.5491
     27 O5          6.0030   -2.2932   -0.6332 O.3       1 <0>        -0.5447
     28 C20         2.9368    0.7561    0.9752 C.3       1 <0>        -0.1565
     29 H4          0.8983    1.9093    0.2129 H         1 <0>         0.0646
     30 H5         -0.8472    1.9210   -0.1357 H         1 <0>         0.0585
     31 H6         -0.2764    1.8152    1.5469 H         1 <0>         0.0560
     32 H7         -0.2155   -1.4603   -1.1598 H         1 <0>         0.0645
     33 H8         -0.5053    0.2139   -1.6763 H         1 <0>         0.0624
     34 H9          1.6512   -0.6421   -2.5096 H         1 <0>         0.0618
     35 H10         1.8906    0.7311   -1.4200 H         1 <0>         0.0692
     36 H11         1.7052   -0.4179    3.3753 H         1 <0>         0.0807
     37 H12         0.7367    0.9697    2.8229 H         1 <0>         0.0901
     38 H13        -0.3964   -0.9115    4.3940 H         1 <0>         0.0820
     39 H14        -1.3291   -0.2814    2.9955 H         1 <0>         0.0843
     40 H15        -2.1023   -1.9638    1.4055 H         1 <0>         0.0711
     41 H16        -1.6745   -3.6531    1.7677 H         1 <0>         0.0874
     42 H17        -2.2846   -3.2454    4.1685 H         1 <0>         0.0453
     43 H18        -2.8194   -1.6077    3.7209 H         1 <0>         0.0444
     44 H19        -4.6201   -3.1764    3.6719 H         1 <0>         0.3804
     45 H20         1.2428   -2.9439    3.8821 H         1 <0>         0.0502
     46 H21        -0.3929   -3.2253    4.5252 H         1 <0>         0.0521
     47 H22         0.5538   -5.2135    3.5998 H         1 <0>         0.3773
     48 H23         3.2042   -1.1864    2.7815 H         1 <0>         0.0617
     49 H24         2.7609   -2.5768    1.7602 H         1 <0>         0.0775
     50 H25         5.1028   -0.6739    1.2437 H         1 <0>         0.0739
     51 H26         5.2173   -2.2971    1.9257 H         1 <0>         0.0572
     52 H27         4.7376    0.4000   -0.7068 H         1 <0>         0.0542
     53 H28         5.4430   -0.4939   -2.0749 H         1 <0>         0.0741
     54 H29         3.8814    0.3386   -2.2661 H         1 <0>         0.0476
     55 H30         3.1269   -3.3136   -2.0910 H         1 <0>         0.0382
     56 H31         3.0083   -1.8634   -3.1164 H         1 <0>         0.0430
     57 H32         4.8728   -3.2296   -3.7191 H         1 <0>         0.3695
     58 H33         6.6111   -2.8074   -0.0846 H         1 <0>         0.3665
     59 H34         2.4695    1.3956    0.2263 H         1 <0>         0.0660
     60 H35         2.7297    1.1504    1.9700 H         1 <0>         0.0573
     61 H36         4.0141    0.7317    0.8110 H         1 <0>         0.0687
@<TRIPOS>BOND
     1    1    2 1
     2    1   29 1
     3    1   30 1
     4    1   31 1
     5    2    3 1
     6    2    9 1
     7    2    4 1
     8    4    5 1
     9    4   32 1
    10    4   33 1
    11    5    6 1
    12    5   34 1
    13    5   35 1
    14    6    7 1
    15    6   23 1
    16    6    8 1
    17    8    9 1
    18    8   19 1
    19    8   28 1
    20    9   13 1
    21    9   10 1
    22   10   11 1
    23   10   36 1
    24   10   37 1
    25   11   12 1
    26   11   38 1
    27   11   39 1
    28   12   13 1
    29   12   14 1
    30   12   17 1
    31   14   15 1
    32   14   40 1
    33   14   41 1
    34   15   16 1
    35   15   42 1
    36   15   43 1
    37   16   44 1
    38   17   18 1
    39   17   45 1
    40   17   46 1
    41   18   47 1
    42   19   20 1
    43   19   48 1
    44   19   49 1
    45   20   21 1
    46   20   50 1
    47   20   51 1
    48   21   22 1
    49   21   23 1
    50   21   27 1
    51   23   24 1
    52   23   25 1
    53   24   52 1
    54   24   53 1
    55   24   54 1
    56   25   26 1
    57   25   55 1
    58   25   56 1
    59   26   57 1
    60   27   58 1
    61   28   59 1
    62   28   60 1
    63   28   61 1
@<TRIPOS>MOLECULE
ZINC48819428
   33    34     0     0     0
SMALL
USER_CHARGES

@<TRIPOS>ATOM
      1 C1         -0.0167    1.3780    0.0096 C.ar      1 <0>        -0.1035
      2 C2          1.1709    2.0859    0.0021 C.ar      1 <0>        -0.1058
      3 C3          2.3773    1.4120   -0.0131 C.ar      1 <0>        -0.0920
      4 C4          2.3966    0.0286   -0.0207 C.ar      1 <0>        -0.0797
      5 C5          1.2084   -0.6791   -0.0132 C.ar      1 <0>        -0.0745
      6 C6          0.0021   -0.0041    0.0020 C.ar      1 <0>        -0.0941
      7 C7          1.2287   -2.1859   -0.0220 C.3       1 <0>         0.1513
      8 N1          1.4883   -2.6788    1.3330 N.pl3     1 <0>        -1.1094
      9 S1          1.2032   -4.2670    1.7052 S.o2      1 <0>         2.6959
     10 O1          1.5726   -4.4377    3.0667 O.2       1 <0>        -0.9540
     11 O2         -0.1000   -4.5688    1.2259 O.2       1 <0>        -0.9516
     12 C8          2.3265   -5.2349    0.7535 C.ar      1 <0>        -0.6350
     13 C9          1.9637   -5.6720   -0.5070 C.ar      1 <0>        -0.0641
     14 C10         2.8412   -6.4316   -1.2588 C.ar      1 <0>        -0.1155
     15 C11         4.0877   -6.7566   -0.7499 C.ar      1 <0>         0.0819
     16 C12         4.4542   -6.3166    0.5201 C.ar      1 <0>         0.1772
     17 C13         3.5706   -5.5506    1.2665 C.ar      1 <0>        -0.0842
     18 N2          5.7123   -6.6424    1.0397 N.pl3     1 <0>        -0.8703
     19 O3          4.9517   -7.5040   -1.4880 O.3       1 <0>        -0.4916
     20 Br1         4.0470   -0.8942   -0.0421 Br        1 <0>        -0.0432
     21 H1         -0.9592    1.9050    0.0260 H         1 <0>         0.1335
     22 H2          1.1558    3.1658    0.0077 H         1 <0>         0.1342
     23 H3          3.3049    1.9651   -0.0193 H         1 <0>         0.1351
     24 H4         -0.9258   -0.5567    0.0083 H         1 <0>         0.1378
     25 H5          0.2646   -2.5603   -0.3662 H         1 <0>         0.0967
     26 H6          2.0142   -2.5348   -0.6922 H         1 <0>         0.0834
     27 H7          1.8272   -2.0747    2.0121 H         1 <0>         0.4210
     28 H8          0.9920   -5.4199   -0.9054 H         1 <0>         0.1425
     29 H9          2.5544   -6.7717   -2.2429 H         1 <0>         0.1397
     30 H10         3.8533   -5.2041    2.2496 H         1 <0>         0.1422
     31 H11         6.3304   -7.1753    0.5154 H         1 <0>         0.4043
     32 H12         5.9661   -6.3354    1.9241 H         1 <0>         0.4027
     33 H13         5.5376   -6.9832   -2.0542 H         1 <0>         0.3891
@<TRIPOS>BOND
     1    1    6 ar
     2    1    2 ar
     3    1   21 1
     4    2    3 ar
     5    2   22 1
     6    3    4 ar
     7    3   23 1
     8    4    5 ar
     9    4   20 1
    10    5    6 ar
    11    5    7 1
    12    6   24 1
    13    7    8 1
    14    7   25 1
    15    7   26 1
    16    8    9 1
    17    8   27 1
    18    9   10 2
    19    9   11 2
    20    9   12 1
    21   12   17 ar
    22   12   13 ar
    23   13   14 ar
    24   13   28 1
    25   14   15 ar
    26   14   29 1
    27   15   16 ar
    28   15   19 1
    29   16   17 ar
    30   16   18 1
    31   17   30 1
    32   18   31 1
    33   18   32 1
    34   19   33 1
@<TRIPOS>MOLECULE
ZINC43528236
   39    40     0     0     0
SMALL
USER_CHARGES

@<TRIPOS>ATOM
      1 C1         -0.0228    1.5016   -0.0069 C.3       1 <0>        -0.1624
      2 C2         -0.0055   -0.0283   -0.0039 C.3       1 <0>         0.1947
      3 H1         -1.0289   -0.4032    0.0096 H         1 <0>         0.1080
      4 C3          0.6952   -0.5251   -1.2421 C.ar      1 <0>        -0.0348
      5 C4          2.0764   -0.5493   -1.2920 C.ar      1 <0>        -0.1367
      6 C5          2.7192   -1.0050   -2.4278 C.ar      1 <0>        -0.0155
      7 C6          1.9806   -1.4370   -3.5136 C.ar      1 <0>        -0.6760
      8 C7          0.5994   -1.4137   -3.4634 C.ar      1 <0>        -0.0096
      9 C8         -0.0433   -0.9620   -2.3259 C.ar      1 <0>        -0.1261
     10 S1          2.7999   -2.0169   -4.9618 S.o2      1 <0>         2.7014
     11 O1          1.8872   -1.8517   -6.0383 O.2       1 <0>        -0.9601
     12 O2          4.0923   -1.4261   -4.9613 O.2       1 <0>        -0.9586
     13 N1          3.0246   -3.6472   -4.7776 N.pl3     1 <0>        -1.2476
     14 N2          0.7054   -0.5063    1.1845 N.am      1 <0>        -0.7344
     15 C9          0.0490   -0.6402    2.3540 C.2       1 <0>         0.7097
     16 O3         -1.1331   -0.3642    2.4227 O.2       1 <0>        -0.5636
     17 N3          0.7031   -1.0799    3.4473 N.am      1 <0>        -0.6816
     18 C10         0.0460   -1.1305    4.6834 C.ar      1 <0>         0.1463
     19 C11        -1.3053   -1.4416    4.7404 C.ar      1 <0>        -0.0873
     20 C12        -1.9512   -1.4907    5.9619 C.ar      1 <0>        -0.0270
     21 C13        -1.2519   -1.2301    7.1273 C.ar      1 <0>        -0.0968
     22 C14         0.0944   -0.9199    7.0745 C.ar      1 <0>        -0.1201
     23 C15         0.7476   -0.8747    5.8563 C.ar      1 <0>         0.0753
     24 F1          2.0645   -0.5775    5.8056 F         1 <0>        -0.1321
     25 Cl1        -3.6417   -1.8792    6.0336 Cl        1 <0>        -0.0526
     26 H2          1.0006    1.8765   -0.0204 H         1 <0>         0.0621
     27 H3         -0.5518    1.8573   -0.8911 H         1 <0>         0.0737
     28 H4         -0.5296    1.8610    0.8887 H         1 <0>         0.0725
     29 H5          2.6534   -0.2118   -0.4437 H         1 <0>         0.1326
     30 H6          3.7983   -1.0232   -2.4671 H         1 <0>         0.1461
     31 H7          0.0224   -1.7509   -4.3118 H         1 <0>         0.1472
     32 H8         -1.1225   -0.9473   -2.2853 H         1 <0>         0.1398
     33 H9          3.0421   -4.2254   -5.5563 H         1 <0>         0.4230
     34 H10         3.1388   -4.0240   -3.8911 H         1 <0>         0.4171
     35 H11         1.6485   -0.7264    1.1297 H         1 <0>         0.3994
     36 H12         1.6287   -1.3614    3.3782 H         1 <0>         0.4128
     37 H13        -1.8520   -1.6447    3.8314 H         1 <0>         0.1629
     38 H14        -1.7590   -1.2689    8.0801 H         1 <0>         0.1469
     39 H15         0.6373   -0.7167    7.9857 H         1 <0>         0.1514
@<TRIPOS>BOND
     1    1    2 1
     2    1   26 1
     3    1   27 1
     4    1   28 1
     5    2    3 1
     6    2    4 1
     7    2   14 1
     8    4    9 ar
     9    4    5 ar
    10    5    6 ar
    11    5   29 1
    12    6    7 ar
    13    6   30 1
    14    7    8 ar
    15    7   10 1
    16    8    9 ar
    17    8   31 1
    18    9   32 1
    19   10   11 2
    20   10   12 2
    21   10   13 1
    22   13   33 1
    23   13   34 1
    24   14   15 am
    25   14   35 1
    26   15   16 2
    27   15   17 am
    28   17   18 1
    29   17   36 1
    30   18   23 ar
    31   18   19 ar
    32   19   20 ar
    33   19   37 1
    34   20   21 ar
    35   20   25 1
    36   21   22 ar
    37   21   38 1
    38   22   23 ar
    39   22   39 1
    40   23   24 1
@<TRIPOS>MOLECULE
ZINC05352485
   49    52     0     0     0
SMALL
USER_CHARGES
2-[(4-amino-5-hydroxy-6-methyl-tetrahydropyran-2-yl)oxymethyl]anthracene-9,10-dione
@<TRIPOS>ATOM
      1 C1         11.1470    6.4849   -0.2453 C.3       1 <0>        -0.1965
      2 C2         10.0215    7.1679   -1.0249 C.3       1 <0>         0.0738
      3 H1          9.8088    8.1398   -0.5797 H         1 <0>         0.1306
      4 C3         10.4511    7.3568   -2.4821 C.3       1 <0>         0.0551
      5 H2          9.6661    7.8797   -3.0284 H         1 <0>         0.0954
      6 C4         10.6899    5.9839   -3.1180 C.3       1 <0>         0.0392
      7 H3         11.5095    5.4816   -2.6040 H         1 <0>         0.1529
      8 C5          9.4138    5.1459   -2.9921 C.3       1 <0>        -0.1663
      9 C6          9.0242    5.0426   -1.5152 C.3       1 <0>         0.2564
     10 H4          9.8128    4.5281   -0.9663 H         1 <0>         0.0756
     11 O1          8.8473    6.3547   -0.9774 O.3       1 <0>        -0.3814
     12 O2          7.8034    4.3097   -1.3945 O.3       1 <0>        -0.3519
     13 C7          7.4075    4.0580   -0.0447 C.3       1 <0>         0.1033
     14 C8          6.1149    3.2832   -0.0365 C.ar      1 <0>        -0.0830
     15 C9          6.1427    1.9006   -0.0437 C.ar      1 <0>        -0.0755
     16 C10         4.9637    1.1759   -0.0372 C.ar      1 <0>        -0.0704
     17 C11         3.7408    1.8406   -0.0229 C.ar      1 <0>        -0.1034
     18 C12         3.7125    3.2466   -0.0150 C.ar      1 <0>        -0.1184
     19 C13         4.9078    3.9600   -0.0222 C.ar      1 <0>        -0.0447
     20 C14         2.4186    3.9608   -0.0002 C.2       1 <0>         0.4361
     21 O3          2.3943    5.1756    0.0061 O.2       1 <0>        -0.4273
     22 C15         1.1544    3.1952    0.0082 C.ar      1 <0>        -0.1230
     23 C16        -0.0685    3.8599    0.0235 C.ar      1 <0>        -0.0671
     24 C17        -1.2475    3.1351    0.0309 C.ar      1 <0>        -0.0956
     25 C18        -1.2198    1.7526    0.0174 C.ar      1 <0>        -0.0948
     26 C19        -0.0126    1.0758    0.0080 C.ar      1 <0>        -0.0667
     27 C20         1.1827    1.7892    0.0004 C.ar      1 <0>        -0.1222
     28 C21         2.4765    1.0750   -0.0154 C.2       1 <0>         0.4326
     29 O4          2.5009   -0.1397   -0.0217 O.2       1 <0>        -0.4220
     30 O5         11.6576    8.1212   -2.5290 O.3       1 <0>        -0.5628
     31 H5         11.3598    5.5131   -0.6909 H         1 <0>         0.0592
     32 H6         12.0425    7.1052   -0.2816 H         1 <0>         0.0879
     33 H7         10.8405    6.3497    0.7919 H         1 <0>         0.0824
     34 H8          9.5922    4.1479   -3.3924 H         1 <0>         0.1181
     35 H9          8.6079    5.6240   -3.5488 H         1 <0>         0.1113
     36 H10         7.2664    5.0055    0.4752 H         1 <0>         0.0813
     37 H11         8.1815    3.4789    0.4589 H         1 <0>         0.0720
     38 H12         7.0906    1.3831   -0.0548 H         1 <0>         0.1398
     39 H13         4.9924    0.0963   -0.0429 H         1 <0>         0.1494
     40 H14         4.8932    5.0399   -0.0170 H         1 <0>         0.1457
     41 H15        -0.0972    4.9395    0.0293 H         1 <0>         0.1448
     42 H16        -2.1954    3.6526    0.0431 H         1 <0>         0.1413
     43 H17        -2.1461    1.1973    0.0187 H         1 <0>         0.1416
     44 H18         0.0021   -0.0041    0.0020 H         1 <0>         0.1455
     45 H19        11.1915    5.2592   -4.9785 H         1 <0>         0.4406
     46 H20        10.3116    6.6698   -5.0218 H         1 <0>         0.4366
     47 H21        11.5804    9.0023   -2.1382 H         1 <0>         0.4124
     48 N1         11.0507    6.1654   -4.5351 N.4       1 <0>        -0.6381
     49 H22        11.9213    6.7066   -4.5951 H         1 <0>         0.4504
@<TRIPOS>BOND
     1    1    2 1
     2    1   31 1
     3    1   32 1
     4    1   33 1
     5    2    3 1
     6    2   11 1
     7    2    4 1
     8    4    5 1
     9    4    6 1
    10    4   30 1
    11    6    7 1
    12    6    8 1
    13    6   48 1
    14    8    9 1
    15    8   34 1
    16    8   35 1
    17    9   10 1
    18    9   11 1
    19    9   12 1
    20   12   13 1
    21   13   14 1
    22   13   36 1
    23   13   37 1
    24   14   19 ar
    25   14   15 ar
    26   15   16 ar
    27   15   38 1
    28   16   17 ar
    29   16   39 1
    30   17   28 1
    31   17   18 ar
    32   18   19 ar
    33   18   20 1
    34   19   40 1
    35   20   21 2
    36   20   22 1
    37   22   27 ar
    38   22   23 ar
    39   23   24 ar
    40   23   41 1
    41   24   25 ar
    42   24   42 1
    43   25   26 ar
    44   25   43 1
    45   26   27 ar
    46   26   44 1
    47   27   28 1
    48   28   29 2
    49   30   47 1
    50   45   48 1
    51   46   48 1
    52   48   49 1
@<TRIPOS>MOLECULE
ZINC30499092
   54    55     0     0     0
SMALL
USER_CHARGES
(2R)-N-(o-tolyl)-2-[[(1S)-1-[4-(propanoylamino)phenyl]ethyl]amino]propanamide
@<TRIPOS>ATOM
      1 C1          5.1064   -5.3148   12.9028 C.3       1 <0>        -0.1438
      2 C2          4.3946   -5.8517   11.6594 C.3       1 <0>        -0.1442
      3 C3          3.6641   -4.7261   10.9735 C.2       1 <0>         0.5157
      4 O1          3.7084   -3.6048   11.4338 O.2       1 <0>        -0.5158
      5 N1          2.9615   -4.9654    9.8485 N.am      1 <0>        -0.6957
      6 C4          2.3788   -3.9034    9.1483 C.ar      1 <0>         0.1870
      7 C5          3.0168   -2.6710    9.0961 C.ar      1 <0>        -0.1157
      8 C6          2.4392   -1.6248    8.4038 C.ar      1 <0>        -0.0595
      9 C7          1.2267   -1.8033    7.7633 C.ar      1 <0>        -0.1565
     10 C8          0.5863   -3.0277    7.8178 C.ar      1 <0>        -0.0990
     11 C9          1.1614   -4.0795    8.5036 C.ar      1 <0>        -0.1394
     12 C10         0.5989   -0.6593    7.0096 C.3       1 <0>         0.0944
     13 H1          1.3716    0.0751    6.7383 H         1 <0>         0.1347
     14 C11        -0.4891   -0.0164    7.8720 C.3       1 <0>        -0.1781
     15 N2          0.0034   -1.1616    5.7642 N.4       1 <0>        -0.5290
     16 C12         0.0227   -0.1304    4.7181 C.3       1 <0>         0.0125
     17 H2         -0.2054    0.8341    5.1953 H         1 <0>         0.1617
     18 C13        -1.0157   -0.4707    3.6472 C.3       1 <0>        -0.1809
     19 C14         1.3920   -0.0765    4.0910 C.2       1 <0>         0.5015
     20 O2          2.2658   -0.8236    4.4774 O.2       1 <0>        -0.5085
     21 N3          1.6455    0.8019    3.1007 N.am      1 <0>        -0.6543
     22 C15         2.8862    0.7880    2.4539 C.ar      1 <0>         0.1224
     23 C16         4.0384    0.4782    3.1650 C.ar      1 <0>        -0.1132
     24 C17         5.2612    0.4648    2.5236 C.ar      1 <0>        -0.1074
     25 C18         5.3394    0.7591    1.1745 C.ar      1 <0>        -0.1140
     26 C19         4.1937    1.0628    0.4627 C.ar      1 <0>        -0.1014
     27 C20         2.9681    1.0834    1.0996 C.ar      1 <0>        -0.0988
     28 C21         1.7206    1.4201    0.3242 C.3       1 <0>        -0.1200
     29 H3          5.6396   -6.1364   13.4035 H         1 <0>         0.0694
     30 H4          4.3653   -4.8846   13.5925 H         1 <0>         0.0640
     31 H5          5.8260   -4.5375   12.6063 H         1 <0>         0.0636
     32 H6          5.1357   -6.2819   10.9697 H         1 <0>         0.1016
     33 H7          3.6750   -6.6291   11.9558 H         1 <0>         0.1006
     34 H8          2.8462   -5.9957    9.4808 H         1 <0>         0.4424
     35 H9          3.9634   -2.5307    9.5967 H         1 <0>         0.1424
     36 H10         2.9349   -0.6661    8.3628 H         1 <0>         0.1325
     37 H11        -0.3627   -3.1627    7.3203 H         1 <0>         0.1229
     38 H12         0.6628   -5.0368    8.5423 H         1 <0>         0.1368
     39 H13        -0.9473    0.8187    7.3218 H         1 <0>         0.0809
     40 H14        -0.0432    0.3597    8.8046 H         1 <0>         0.1084
     41 H15        -1.2589   -0.7654    8.1096 H         1 <0>         0.0861
     42 H16         0.5736   -2.0334    5.4107 H         1 <0>         0.4565
     43 H17        -1.0012    0.3015    2.8639 H         1 <0>         0.1105
     44 H18        -2.0152   -0.5099    4.1050 H         1 <0>         0.1003
     45 H19        -0.7773   -1.4483    3.2028 H         1 <0>         0.0909
     46 H20         0.8771    1.5297    2.8010 H         1 <0>         0.4411
     47 H21         3.9779    0.2476    4.2184 H         1 <0>         0.1360
     48 H22         6.1575    0.2240    3.0760 H         1 <0>         0.1295
     49 H23         6.2969    0.7473    0.6750 H         1 <0>         0.1301
     50 H24         4.2574    1.2878   -0.5917 H         1 <0>         0.1322
     51 H25         1.9842    1.6229   -0.7243 H         1 <0>         0.0777
     52 H26         1.2461    2.3108    0.7619 H         1 <0>         0.0693
     53 H27         1.0210    0.5724    0.3691 H         1 <0>         0.0689
     54 H28        -1.0400   -1.4565    5.9495 H         1 <0>         0.4506
@<TRIPOS>BOND
     1    1    2 1
     2    1   29 1
     3    1   30 1
     4    1   31 1
     5    2    3 1
     6    2   32 1
     7    2   33 1
     8    3    4 2
     9    3    5 am
    10    5    6 1
    11    5   34 1
    12    6   11 ar
    13    6    7 ar
    14    7    8 ar
    15    7   35 1
    16    8    9 ar
    17    8   36 1
    18    9   10 ar
    19    9   12 1
    20   10   11 ar
    21   10   37 1
    22   11   38 1
    23   12   13 1
    24   12   14 1
    25   12   15 1
    26   14   39 1
    27   14   40 1
    28   14   41 1
    29   15   16 1
    30   15   42 1
    31   15   54 1
    32   16   17 1
    33   16   18 1
    34   16   19 1
    35   18   43 1
    36   18   44 1
    37   18   45 1
    38   19   20 2
    39   19   21 am
    40   21   22 1
    41   21   46 1
    42   22   27 ar
    43   22   23 ar
    44   23   24 ar
    45   23   47 1
    46   24   25 ar
    47   24   48 1
    48   25   26 ar
    49   25   49 1
    50   26   27 ar
    51   26   50 1
    52   27   28 1
    53   28   51 1
    54   28   52 1
    55   28   53 1
@<TRIPOS>MOLECULE
ZINC42445281
   43    43     0     0     0
SMALL
USER_CHARGES

@<TRIPOS>ATOM
      1 C1         -0.2599    1.4372    0.0315 C.3       1 <0>        -0.1892
      2 C2         -0.0359   -0.0760   -0.0014 C.3       1 <0>        -0.0203
      3 N1          0.8203   -0.4689    1.1258 N.4       1 <0>        -0.3858
      4 C3          0.1113   -0.2220    2.3885 C.3       1 <0>         0.0472
      5 C4          1.0384   -0.4905    3.5458 C.ar      1 <0>        -0.2009
      6 C5          1.0208   -1.7229    4.1728 C.ar      1 <0>        -0.0363
      7 C6          1.8691   -1.9718    5.2342 C.ar      1 <0>        -0.1998
      8 C7          2.7398   -0.9843    5.6713 C.ar      1 <0>         0.1934
      9 C8          2.7563    0.2518    5.0404 C.ar      1 <0>        -0.1316
     10 C9          1.9089    0.4938    3.9753 C.ar      1 <0>        -0.0277
     11 Br1         3.9411    1.6013    5.6329 Br        1 <0>        -0.0062
     12 O1          3.5751   -1.2267    6.7157 O.3       1 <0>        -0.2919
     13 C10         3.5032   -2.5210    7.3171 C.3       1 <0>         0.0184
     14 C11         1.1463   -1.8972    1.0184 C.3       1 <0>        -0.0090
     15 C12         1.9921   -2.1345   -0.2343 C.3       1 <0>        -0.0481
     16 H1          1.4687   -1.7415   -1.1059 H         1 <0>         0.1159
     17 C13         3.3379   -1.4223   -0.0835 C.3       1 <0>        -0.1595
     18 C14         2.2233   -3.6131   -0.4117 C.2       1 <0>         0.3566
     19 N2          3.3023   -4.1574    0.0447 N.2       1 <0>        -0.4010
     20 O2          3.5196   -5.5467   -0.1219 O.3       1 <0>        -0.4128
     21 N3          1.2843   -4.3839   -1.0603 N.pl3     1 <0>        -0.8689
     22 H2          0.7034    1.9467    0.0519 H         1 <0>         0.0813
     23 H3         -0.8134    1.7419   -0.8567 H         1 <0>         0.1084
     24 H4         -0.8294    1.7009    0.9227 H         1 <0>         0.0828
     25 H5         -0.9956   -0.5871    0.0758 H         1 <0>         0.1338
     26 H6          0.4480   -0.3514   -0.9385 H         1 <0>         0.1319
     27 H7         -0.2206    0.8157    2.4219 H         1 <0>         0.1434
     28 H8         -0.7533   -0.8824    2.4548 H         1 <0>         0.1389
     29 H9          0.3428   -2.4916    3.8324 H         1 <0>         0.1397
     30 H10         1.8541   -2.9343    5.7238 H         1 <0>         0.1495
     31 H11         1.9239    1.4541    3.4812 H         1 <0>         0.1464
     32 H12         2.4971   -2.6875    7.7019 H         1 <0>         0.0655
     33 H13         3.7376   -3.2813    6.5720 H         1 <0>         0.0648
     34 H14         4.2201   -2.5816    8.1359 H         1 <0>         0.1155
     35 H15         1.7068   -2.2092    1.8997 H         1 <0>         0.1405
     36 H16         0.2252   -2.4760    0.9499 H         1 <0>         0.1351
     37 H17         3.8612   -1.8154    0.7881 H         1 <0>         0.0883
     38 H18         3.9404   -1.5914   -0.9759 H         1 <0>         0.0889
     39 H19         3.1706   -0.3529    0.0448 H         1 <0>         0.0592
     40 H20         4.3536   -5.8620    0.2522 H         1 <0>         0.4091
     41 H21         0.4741   -3.9752   -1.4030 H         1 <0>         0.3966
     42 H22         1.4331   -5.3356   -1.1745 H         1 <0>         0.4158
     43 H23         1.6713    0.0728    1.1064 H         1 <0>         0.4223
@<TRIPOS>BOND
     1    1    2 1
     2    1   22 1
     3    1   23 1
     4    1   24 1
     5    2    3 1
     6    2   25 1
     7    2   26 1
     8    3    4 1
     9    3   14 1
    10    3   43 1
    11    4    5 1
    12    4   27 1
    13    4   28 1
    14    5   10 ar
    15    5    6 ar
    16    6    7 ar
    17    6   29 1
    18    7    8 ar
    19    7   30 1
    20    8    9 ar
    21    8   12 1
    22    9   10 ar
    23    9   11 1
    24   10   31 1
    25   12   13 1
    26   13   32 1
    27   13   33 1
    28   13   34 1
    29   14   15 1
    30   14   35 1
    31   14   36 1
    32   15   16 1
    33   15   17 1
    34   15   18 1
    35   17   37 1
    36   17   38 1
    37   17   39 1
    38   18   19 2
    39   18   21 1
    40   19   20 1
    41   20   40 1
    42   21   41 1
    43   21   42 1
@<TRIPOS>MOLECULE
ZINC54380860
   33    35     0     0     0
SMALL
USER_CHARGES

@<TRIPOS>ATOM
      1 C1          0.2561    1.7378   -0.0387 C.ar      1 <0>        -0.0969
      2 C2          1.4750    2.4130   -0.0731 C.ar      1 <0>        -0.0910
      3 C3          2.6529    1.7317   -0.0874 C.ar      1 <0>        -0.1124
      4 C4          2.6438    0.3261   -0.0672 C.ar      1 <0>        -0.0266
      5 C5          1.4042   -0.3608   -0.0322 C.ar      1 <0>        -0.0384
      6 C6          0.2084    0.3779   -0.0184 C.ar      1 <0>        -0.1018
      7 C7          1.3911   -1.7659   -0.0114 C.ar      1 <0>        -0.0583
      8 C8          2.5636   -2.4550   -0.0250 C.ar      1 <0>        -0.1183
      9 C9          3.7905   -1.7857   -0.0590 C.ar      1 <0>         0.1007
     10 C10         3.8405   -0.4099   -0.0806 C.ar      1 <0>        -0.0666
     11 Br1         5.5071    0.4823   -0.1272 Br        1 <0>        -0.0229
     12 O1          4.9462   -2.5007   -0.0715 O.3       1 <0>        -0.2434
     13 C11         5.5784   -2.7080    1.1083 C.ar      1 <0>         0.3334
     14 C12         6.8222   -3.3542    1.1365 C.ar      1 <0>        -0.0108
     15 N1          7.4352   -3.5528    2.2993 N.ar      1 <0>        -0.3604
     16 C13         6.8734   -3.1427    3.4189 C.ar      1 <0>         0.0430
     17 C14         5.6427   -2.5038    3.3908 C.ar      1 <0>         0.1716
     18 N2          5.0260   -2.2956    2.2413 N.ar      1 <0>        -0.4649
     19 C15         7.4495   -3.8136   -0.1222 C.cat     1 <0>         0.6215
     20 N3          8.7758   -3.8839   -0.2182 N.pl3     1 <0>        -0.7394
     21 N4          6.6879   -4.1569   -1.1591 N.pl3     1 <0>        -0.7419
     22 H1         -0.6644    2.3025   -0.0234 H         1 <0>         0.1363
     23 H2          1.4847    3.4929   -0.0890 H         1 <0>         0.1361
     24 H3          3.5899    2.2680   -0.1144 H         1 <0>         0.1377
     25 H4         -0.7436   -0.1313    0.0085 H         1 <0>         0.1404
     26 H5          0.4515   -2.2977    0.0157 H         1 <0>         0.1497
     27 H6          2.5466   -3.5347   -0.0089 H         1 <0>         0.1419
     28 H7          7.3734   -3.3051    4.3623 H         1 <0>         0.2055
     29 H8          5.1885   -2.1713    4.3125 H         1 <0>         0.2032
     30 H9          9.3323   -3.5638    0.5090 H         1 <0>         0.4515
     31 H10         5.7218   -4.1057   -1.0892 H         1 <0>         0.4474
     32 H11         7.0992   -4.4581   -1.9843 H         1 <0>         0.4381
     33 H12         9.1854   -4.2551   -1.0152 H         1 <0>         0.4359
@<TRIPOS>BOND
     1    1    6 ar
     2    1    2 ar
     3    1   22 1
     4    2    3 ar
     5    2   23 1
     6    3    4 ar
     7    3   24 1
     8    4   10 ar
     9    4    5 ar
    10    5    6 ar
    11    5    7 ar
    12    6   25 1
    13    7    8 ar
    14    7   26 1
    15    8    9 ar
    16    8   27 1
    17    9   10 ar
    18    9   12 1
    19   10   11 1
    20   12   13 1
    21   13   18 ar
    22   13   14 ar
    23   14   15 ar
    24   14   19 1
    25   15   16 ar
    26   16   17 ar
    27   16   28 1
    28   17   18 ar
    29   17   29 1
    30   19   20 2
    31   19   21 1
    32   20   30 1
    33   20   33 1
    34   21   31 1
    35   21   32 1
@<TRIPOS>MOLECULE
ZINC52830885
   46    47     0     0     0
SMALL
USER_CHARGES

@<TRIPOS>ATOM
      1 C1          0.1970    0.7353   -0.5878 C.3       1 <0>        -0.1842
      2 C2          0.2476   -0.4845    0.3342 C.3       1 <0>         0.0059
      3 C3         -0.9565   -1.3551    0.0821 C.2       1 <0>         0.5045
      4 O1         -0.8833   -2.2798   -0.6994 O.2       1 <0>        -0.4981
      5 N1         -2.1145   -1.1061    0.7250 N.am      1 <0>        -0.6349
      6 C4         -3.2214   -1.9411    0.5231 C.ar      1 <0>         0.1393
      7 C5         -3.3336   -2.6762   -0.6472 C.ar      1 <0>        -0.1115
      8 C6         -4.4265   -3.4995   -0.8445 C.ar      1 <0>        -0.1015
      9 C7         -5.4105   -3.5936    0.1229 C.ar      1 <0>        -0.1010
     10 C8         -5.3075   -2.8648    1.2924 C.ar      1 <0>        -0.1023
     11 C9         -4.2111   -2.0398    1.5014 C.ar      1 <0>        -0.1159
     12 S1         -4.0733   -1.1143    2.9945 S.3       1 <0>        -0.0241
     13 C10        -5.4517   -1.6463    3.9545 C.ar      1 <0>        -0.1436
     14 C11        -5.3365   -2.7555    4.7839 C.ar      1 <0>        -0.0635
     15 C12        -6.4188   -3.1695    5.5347 C.ar      1 <0>        -0.1263
     16 C13        -7.6166   -2.4818    5.4621 C.ar      1 <0>        -0.0797
     17 C14        -7.7350   -1.3775    4.6378 C.ar      1 <0>        -0.1258
     18 C15        -6.6552   -0.9543    3.8884 C.ar      1 <0>        -0.0634
     19 N2          1.4713   -1.2514    0.0651 N.4       1 <0>        -0.3590
     20 C16         1.5499   -2.3889    0.9913 C.3       1 <0>        -0.0638
     21 C17         2.6430   -0.3854    0.2526 C.3       1 <0>        -0.0391
     22 C18         3.8897   -1.1349   -0.1414 C.2       1 <0>         0.5098
     23 O2          3.8099   -2.2778   -0.5392 O.2       1 <0>        -0.5238
     24 N3          5.0932   -0.5350   -0.0517 N.am      1 <0>        -0.8242
     25 H1          1.0678    1.3650   -0.4055 H         1 <0>         0.1005
     26 H2          0.1981    0.4057   -1.6268 H         1 <0>         0.0950
     27 H3         -0.7110    1.3043   -0.3882 H         1 <0>         0.1162
     28 H4          0.2464   -0.1549    1.3732 H         1 <0>         0.1641
     29 H5         -2.1817   -0.3489    1.3275 H         1 <0>         0.4189
     30 H6         -2.5673   -2.6054   -1.4049 H         1 <0>         0.1565
     31 H7         -4.5124   -4.0707   -1.7570 H         1 <0>         0.1351
     32 H8         -6.2622   -4.2383   -0.0364 H         1 <0>         0.1331
     33 H9         -6.0781   -2.9401    2.0454 H         1 <0>         0.1317
     34 H10        -4.4015   -3.2932    4.8408 H         1 <0>         0.1315
     35 H11        -6.3300   -4.0316    6.1792 H         1 <0>         0.1339
     36 H12        -8.4616   -2.8081    6.0502 H         1 <0>         0.1335
     37 H13        -8.6718   -0.8429    4.5836 H         1 <0>         0.1346
     38 H14        -6.7470   -0.0892    3.2484 H         1 <0>         0.1338
     39 H15         0.6185   -2.9539    0.9527 H         1 <0>         0.1267
     40 H16         2.3791   -3.0352    0.7033 H         1 <0>         0.1481
     41 H17         1.7105   -2.0218    2.0049 H         1 <0>         0.1224
     42 H18         2.5413    0.5034   -0.3702 H         1 <0>         0.1664
     43 H19         2.7124   -0.0896    1.2994 H         1 <0>         0.1652
     44 H20         5.1570    0.3792    0.2664 H         1 <0>         0.4138
     45 H21         5.8956   -1.0173   -0.3053 H         1 <0>         0.4252
     46 H22         1.4530   -1.5916   -0.8846 H         1 <0>         0.4399
@<TRIPOS>BOND
     1    1    2 1
     2    1   25 1
     3    1   26 1
     4    1   27 1
     5    2    3 1
     6    2   19 1
     7    2   28 1
     8    3    4 2
     9    3    5 am
    10    5    6 1
    11    5   29 1
    12    6   11 ar
    13    6    7 ar
    14    7    8 ar
    15    7   30 1
    16    8    9 ar
    17    8   31 1
    18    9   10 ar
    19    9   32 1
    20   10   11 ar
    21   10   33 1
    22   11   12 1
    23   12   13 1
    24   13   18 ar
    25   13   14 ar
    26   14   15 ar
    27   14   34 1
    28   15   16 ar
    29   15   35 1
    30   16   17 ar
    31   16   36 1
    32   17   18 ar
    33   17   37 1
    34   18   38 1
    35   19   20 1
    36   19   21 1
    37   19   46 1
    38   20   39 1
    39   20   40 1
    40   20   41 1
    41   21   22 1
    42   21   42 1
    43   21   43 1
    44   22   23 2
    45   22   24 am
    46   24   44 1
    47   24   45 1
@<TRIPOS>MOLECULE
ZINC08748354
   47    50     0     0     0
SMALL
USER_CHARGES
amino-N-(3-cyano-4,5-dimethyl-2-thienyl)-methyl-BLAHcarboxamide
@<TRIPOS>ATOM
      1 C1         -1.3140    2.2071    0.0203 C.3       1 <0>        -0.1031
      2 C2         -0.0175    1.4389    0.0100 C.2       1 <0>        -0.0690
      3 C3          1.1715    2.0694    0.0020 C.2       1 <0>        -0.1966
      4 S1          2.3449    0.7300   -0.0164 S.3       1 <0>         0.2490
      5 C4          1.2512   -0.6125   -0.0132 C.2       1 <0>         0.0857
      6 C5          0.0021   -0.0041    0.0020 C.2       1 <0>        -0.1222
      7 C6         -1.2069   -0.7715    0.0090 C.1       1 <0>         0.2653
      8 N1         -2.1660   -1.3803    0.0145 N.1       1 <0>        -0.4171
      9 N2          1.5497   -1.9664   -0.0233 N.am      1 <0>        -0.6143
     10 C7          2.8345   -2.3732   -0.0378 C.2       1 <0>         0.6184
     11 O1          3.7334   -1.5514   -0.0419 O.2       1 <0>        -0.5080
     12 C8          3.1394   -3.7567   -0.0481 C.2       1 <0>        -0.3463
     13 C9          4.3790   -4.3578   -0.0688 C.2       1 <0>         0.3119
     14 C10         4.4411   -5.8113   -0.0716 C.ar      1 <0>        -0.1774
     15 C11         5.5808   -6.6499   -0.0875 C.ar      1 <0>         0.0247
     16 C12         5.4154   -8.0200   -0.0952 C.ar      1 <0>        -0.2077
     17 C13         4.1429   -8.5648   -0.0834 C.ar      1 <0>         0.1832
     18 N3          3.0810   -7.7749   -0.0690 N.ar      1 <0>        -0.4347
     19 C14         3.1885   -6.4659   -0.0635 C.ar      1 <0>         0.1429
     20 S2          2.0116   -5.1364   -0.0453 S.3       1 <0>         0.1684
     21 C15         3.9224  -10.0564   -0.0843 C.3       1 <0>        -0.1010
     22 C16         5.2008  -10.7724   -0.5205 C.3       1 <0>         0.0022
     23 C17         6.6482   -8.8865   -0.1230 C.3       1 <0>         0.0601
     24 C18         7.4957  -11.1330    0.1696 C.3       1 <0>        -0.0416
     25 N4          5.5390   -3.5961   -0.0825 N.pl3     1 <0>        -0.8133
     26 C19         1.4441    3.5515    0.0066 C.3       1 <0>        -0.0692
     27 H1         -1.6215    2.3870    1.0505 H         1 <0>         0.0770
     28 H2         -1.1755    3.1605   -0.4894 H         1 <0>         0.0787
     29 H3         -2.0828    1.6292   -0.4926 H         1 <0>         0.0641
     30 H4          0.8337   -2.6209   -0.0200 H         1 <0>         0.4194
     31 H5          6.5720   -6.2212   -0.0940 H         1 <0>         0.1517
     32 H6          3.6495  -10.3825    0.9194 H         1 <0>         0.1205
     33 H7          3.1172  -10.3028   -0.7763 H         1 <0>         0.1402
     34 H8          5.0946  -11.8446   -0.3553 H         1 <0>         0.1469
     35 H9          5.3869  -10.5784   -1.5769 H         1 <0>         0.1378
     36 H10         7.0574   -8.8975   -1.1332 H         1 <0>         0.1436
     37 H11         7.3913   -8.4768    0.5611 H         1 <0>         0.1410
     38 H12         7.8088  -11.1891   -0.8729 H         1 <0>         0.1259
     39 H13         8.3092  -10.7290    0.7721 H         1 <0>         0.1252
     40 H14         7.2401  -12.1307    0.5264 H         1 <0>         0.1280
     41 H15         5.4834   -2.6277   -0.0772 H         1 <0>         0.4304
     42 H16         6.4054   -4.0321   -0.0974 H         1 <0>         0.4025
     43 H17         1.5193    3.9039    1.0353 H         1 <0>         0.0812
     44 H18         2.3803    3.7504   -0.5149 H         1 <0>         0.0754
     45 H19         0.6298    4.0723   -0.4972 H         1 <0>         0.0836
     46 N5          6.3126  -10.2550    0.3041 N.4       1 <0>        -0.3972
     47 H20         6.0203  -10.2371    1.2882 H         1 <0>         0.4339
@<TRIPOS>BOND
     1    1    2 1
     2    1   27 1
     3    1   28 1
     4    1   29 1
     5    2    6 1
     6    2    3 2
     7    3    4 1
     8    3   26 1
     9    4    5 1
    10    5    6 2
    11    5    9 1
    12    6    7 1
    13    7    8 3
    14    9   10 am
    15    9   30 1
    16   10   11 2
    17   10   12 1
    18   12   20 1
    19   12   13 2
    20   13   14 1
    21   13   25 1
    22   14   19 ar
    23   14   15 ar
    24   15   16 ar
    25   15   31 1
    26   16   23 1
    27   16   17 ar
    28   17   18 ar
    29   17   21 1
    30   18   19 ar
    31   19   20 1
    32   21   22 1
    33   21   32 1
    34   21   33 1
    35   22   34 1
    36   22   35 1
    37   22   46 1
    38   23   36 1
    39   23   37 1
    40   23   46 1
    41   24   38 1
    42   24   39 1
    43   24   40 1
    44   24   46 1
    45   25   41 1
    46   25   42 1
    47   26   43 1
    48   26   44 1
    49   26   45 1
    50   46   47 1
@<TRIPOS>MOLECULE
ZINC37029236
   37    37     0     0     0
SMALL
USER_CHARGES

@<TRIPOS>ATOM
      1 C1         -1.2653    1.1826    0.1811 C.3       1 <0>        -0.1210
      2 C2         -0.5843   -0.1582    0.0843 C.ar      1 <0>        -0.0892
      3 C3         -0.5692   -0.8408   -1.1164 C.ar      1 <0>        -0.0677
      4 C4          0.0561   -2.0713   -1.2061 C.ar      1 <0>        -0.0952
      5 C5          0.6681   -2.6220   -0.0942 C.ar      1 <0>        -0.0724
      6 C6          0.6558   -1.9444    1.1089 C.ar      1 <0>        -0.1048
      7 C7          0.0337   -0.7060    1.2006 C.ar      1 <0>         0.1296
      8 N1          0.0246   -0.0143    2.4171 N.am      1 <0>        -0.6394
      9 C8         -0.0569   -0.6939    3.5782 C.2       1 <0>         0.4999
     10 O1         -0.0402   -1.9066    3.5734 O.2       1 <0>        -0.4974
     11 C9         -0.1688    0.0531    4.8822 C.3       1 <0>         0.0211
     12 H1         -0.8330    0.9080    4.7554 H         1 <0>         0.1748
     13 C10         1.2163    0.5425    5.3101 C.3       1 <0>        -0.1358
     14 C11         1.0864    1.4058    6.5666 C.3       1 <0>        -0.6563
     15 S1          2.7286    1.9861    7.0738 S.o2      1 <0>         2.4264
     16 O2          3.5025    0.8600    7.4640 O.2       1 <0>        -0.9223
     17 O3          3.2299    2.8535    6.0661 O.2       1 <0>        -0.9181
     18 C12         2.3659    2.9730    8.5520 C.3       1 <0>        -0.6503
     19 N2         -0.7124   -0.8408    5.9134 N.4       1 <0>        -0.6224
     20 I1          0.0759   -3.1035   -3.0291 I         1 <0>        -0.0201
     21 H2         -0.5503    1.9711   -0.0539 H         1 <0>         0.0822
     22 H3         -2.0940    1.2211   -0.5258 H         1 <0>         0.0823
     23 H4         -1.6441    1.3255    1.1932 H         1 <0>         0.0627
     24 H5         -1.0464   -0.4135   -1.9859 H         1 <0>         0.1410
     25 H6          1.1555   -3.5830   -0.1672 H         1 <0>         0.1392
     26 H7          1.1331   -2.3751    1.9768 H         1 <0>         0.1470
     27 H8          0.0770    0.9543    2.4247 H         1 <0>         0.4220
     28 H9          1.8549   -0.3149    5.5227 H         1 <0>         0.1200
     29 H10         1.6569    1.1335    4.5071 H         1 <0>         0.1357
     30 H11         0.4478    2.2632    6.3539 H         1 <0>         0.1555
     31 H12         0.6458    0.8149    7.3695 H         1 <0>         0.1326
     32 H13         1.8920    2.3413    9.3034 H         1 <0>         0.1316
     33 H14         3.2936    3.3811    8.9531 H         1 <0>         0.1420
     34 H15         1.6940    3.7897    8.2878 H         1 <0>         0.1337
     35 H16        -0.7873   -0.3406    6.7866 H         1 <0>         0.4417
     36 H17        -1.6258   -1.1635    5.6313 H         1 <0>         0.4454
     37 H18        -0.0975   -1.6321    6.0308 H         1 <0>         0.4460
@<TRIPOS>BOND
     1    1    2 1
     2    1   21 1
     3    1   22 1
     4    1   23 1
     5    2    7 ar
     6    2    3 ar
     7    3    4 ar
     8    3   24 1
     9    4    5 ar
    10    4   20 1
    11    5    6 ar
    12    5   25 1
    13    6    7 ar
    14    6   26 1
    15    7    8 1
    16    8    9 am
    17    8   27 1
    18    9   10 2
    19    9   11 1
    20   11   12 1
    21   11   13 1
    22   11   19 1
    23   13   14 1
    24   13   28 1
    25   13   29 1
    26   14   15 1
    27   14   30 1
    28   14   31 1
    29   15   16 2
    30   15   17 2
    31   15   18 1
    32   18   32 1
    33   18   33 1
    34   18   34 1
    35   19   35 1
    36   19   36 1
    37   19   37 1
@<TRIPOS>MOLECULE
ZINC40672139
   38    39     0     0     0
SMALL
USER_CHARGES

@<TRIPOS>ATOM
      1 C1         -0.0178    1.4648    0.0101 C.3       1 <0>        -0.0472
      2 N1          0.0021   -0.0041    0.0020 N.4       1 <0>        -0.3827
      3 C2         -1.3756   -0.5106    0.0035 C.3       1 <0>        -0.0118
      4 C3         -1.3615   -2.0381   -0.0867 C.3       1 <0>        -0.1454
      5 C4         -0.6051   -2.6081    1.1167 C.3       1 <0>        -0.1600
      6 C5          0.8066   -2.0155    1.1472 C.3       1 <0>         0.1363
      7 H1          1.3489   -2.3207    0.2523 H         1 <0>         0.1004
      8 C6          0.7122   -0.4888    1.1916 C.3       1 <0>        -0.0197
      9 N2          1.5140   -2.4976    2.3361 N.pl3     1 <0>        -1.1070
     10 S1          2.5006   -3.8235    2.2317 S.o2      1 <0>         2.6855
     11 O1          3.0543   -4.0206    3.5255 O.2       1 <0>        -0.9229
     12 O2          1.7572   -4.8310    1.5597 O.2       1 <0>        -0.9269
     13 C7          3.8401   -3.3939    1.1707 C.ar      1 <0>        -0.7445
     14 C8          3.7384   -3.6105   -0.1923 C.ar      1 <0>         0.0991
     15 C9          4.7878   -3.2745   -1.0269 C.ar      1 <0>        -0.2074
     16 C10         5.9449   -2.7186   -0.4965 C.ar      1 <0>         0.3002
     17 C11         6.0440   -2.5019    0.8719 C.ar      1 <0>        -0.2059
     18 C12         4.9897   -2.8354    1.7013 C.ar      1 <0>         0.1104
     19 Cl1         5.1102   -2.5589    3.4109 Cl        1 <0>        -0.0053
     20 N3          7.0069   -2.3785   -1.3374 N.pl3     1 <0>        -0.8472
     21 Cl2         2.2919   -4.3053   -0.8544 Cl        1 <0>        -0.0154
     22 H2          1.0047    1.8421    0.0024 H         1 <0>         0.1244
     23 H3         -0.5450    1.8259   -0.8730 H         1 <0>         0.1275
     24 H4         -0.5280    1.8163    0.9069 H         1 <0>         0.1243
     25 H5         -1.8732   -0.2060    0.9241 H         1 <0>         0.1326
     26 H6         -1.9135   -0.1015   -0.8518 H         1 <0>         0.1355
     27 H7         -2.3852   -2.4123   -0.0837 H         1 <0>         0.1210
     28 H8         -0.8642   -2.3438   -1.0072 H         1 <0>         0.0905
     29 H9         -1.1305   -2.3457    2.0350 H         1 <0>         0.0930
     30 H10        -0.5433   -3.6927    1.0279 H         1 <0>         0.1127
     31 H11         1.7157   -0.0637    1.2136 H         1 <0>         0.1380
     32 H12         0.1701   -0.1847    2.0870 H         1 <0>         0.1403
     33 H13         1.4045   -2.0401    3.1844 H         1 <0>         0.4265
     34 H14         4.7082   -3.4443   -2.0905 H         1 <0>         0.1497
     35 H15         6.9427   -2.0702    1.2871 H         1 <0>         0.1511
     36 H16         6.9368   -2.5305   -2.2929 H         1 <0>         0.4121
     37 H17         7.8145   -1.9903   -0.9660 H         1 <0>         0.4131
     38 H18         0.4767   -0.3284   -0.8272 H         1 <0>         0.4252
@<TRIPOS>BOND
     1    1    2 1
     2    1   22 1
     3    1   23 1
     4    1   24 1
     5    2    8 1
     6    2    3 1
     7    2   38 1
     8    3    4 1
     9    3   25 1
    10    3   26 1
    11    4    5 1
    12    4   27 1
    13    4   28 1
    14    5    6 1
    15    5   29 1
    16    5   30 1
    17    6    7 1
    18    6    8 1
    19    6    9 1
    20    8   31 1
    21    8   32 1
    22    9   10 1
    23    9   33 1
    24   10   11 2
    25   10   12 2
    26   10   13 1
    27   13   18 ar
    28   13   14 ar
    29   14   15 ar
    30   14   21 1
    31   15   16 ar
    32   15   34 1
    33   16   17 ar
    34   16   20 1
    35   17   18 ar
    36   17   35 1
    37   18   19 1
    38   20   36 1
    39   20   37 1
@<TRIPOS>MOLECULE
ZINC45437280
   41    42     0     0     0
SMALL
USER_CHARGES

@<TRIPOS>ATOM
      1 C1          0.8617    0.6341   -0.5067 C.3       1 <0>        -0.1843
      2 C2          0.3258   -0.6639    0.1008 C.3       1 <0>         0.0025
      3 C3          0.5417   -0.6453    1.6154 C.3       1 <0>        -0.1846
      4 N1         -1.1096   -0.7835   -0.1878 N.4       1 <0>        -0.5047
      5 C4         -1.4596   -2.2007   -0.3524 C.3       1 <0>         0.0928
      6 C5         -1.2266   -2.9401    0.9667 C.3       1 <0>         0.1177
      7 N2         -2.1289   -2.4079    1.9908 N.pl3     1 <0>        -0.3979
      8 C6         -2.9943   -3.1261    2.7378 C.2       1 <0>         0.1288
      9 C7         -3.6387   -2.2673    3.5621 C.2       1 <0>        -0.2349
     10 C8         -3.1503   -0.9807    3.3100 C.2       1 <0>         0.1311
     11 N3         -2.2417   -1.0647    2.3722 N.2       1 <0>        -0.3496
     12 Br1        -4.9653   -2.7254    4.8295 Br        1 <0>         0.0149
     13 C9         -0.5976   -2.8092   -1.4284 C.ar      1 <0>        -0.1324
     14 C10         0.2032   -2.0000   -2.2125 C.ar      1 <0>        -0.1334
     15 C11         0.9938   -2.5582   -3.1996 C.ar      1 <0>        -0.1005
     16 C12         0.9840   -3.9256   -3.4022 C.ar      1 <0>        -0.0829
     17 C13         0.1838   -4.7349   -2.6175 C.ar      1 <0>        -0.1002
     18 C14        -0.6036   -4.1771   -1.6276 C.ar      1 <0>        -0.0643
     19 C15        -2.9100   -2.3177   -0.7445 C.2       1 <0>         0.5102
     20 O1         -3.2634   -3.1922   -1.5069 O.2       1 <0>        -0.4634
     21 N4         -3.8143   -1.4505   -0.2479 N.am      1 <0>        -0.8421
     22 H1          1.9268    0.7228   -0.2926 H         1 <0>         0.1145
     23 H2          0.7079    0.6208   -1.5857 H         1 <0>         0.0837
     24 H3          0.3322    1.4832   -0.0746 H         1 <0>         0.0872
     25 H4          0.8552   -1.5130   -0.3313 H         1 <0>         0.1518
     26 H5          0.1750    0.2967    2.0232 H         1 <0>         0.0903
     27 H6         -0.0014   -1.4739    2.0700 H         1 <0>         0.0841
     28 H7          1.6052   -0.7456    1.8320 H         1 <0>         0.1048
     29 H8         -1.6400   -0.3927    0.5765 H         1 <0>         0.4339
     30 H9         -1.4225   -4.0032    0.8268 H         1 <0>         0.1504
     31 H10        -0.1934   -2.7998    1.2843 H         1 <0>         0.1398
     32 H11        -3.1457   -4.1942    2.6865 H         1 <0>         0.1957
     33 H12        -3.4658   -0.0750    3.8066 H         1 <0>         0.2079
     34 H13         0.2109   -0.9317   -2.0542 H         1 <0>         0.1245
     35 H14         1.6190   -1.9260   -3.8126 H         1 <0>         0.1405
     36 H15         1.6011   -4.3616   -4.1738 H         1 <0>         0.1405
     37 H16         0.1759   -5.8031   -2.7760 H         1 <0>         0.1423
     38 H17        -1.2259   -4.8097   -1.0120 H         1 <0>         0.1342
     39 H18        -3.5317   -0.7511    0.3618 H         1 <0>         0.3969
     40 H19        -4.7479   -1.5258   -0.5003 H         1 <0>         0.4272
     41 H20        -1.3248   -0.2831   -1.0371 H         1 <0>         0.4271
@<TRIPOS>BOND
     1    1    2 1
     2    1   22 1
     3    1   23 1
     4    1   24 1
     5    2    3 1
     6    2    4 1
     7    2   25 1
     8    3   26 1
     9    3   27 1
    10    3   28 1
    11    4    5 1
    12    4   29 1
    13    4   41 1
    14    5    6 1
    15    5   13 1
    16    5   19 1
    17    6    7 1
    18    6   30 1
    19    6   31 1
    20    7   11 1
    21    7    8 1
    22    8    9 2
    23    8   32 1
    24    9   10 1
    25    9   12 1
    26   10   11 2
    27   10   33 1
    28   13   18 ar
    29   13   14 ar
    30   14   15 ar
    31   14   34 1
    32   15   16 ar
    33   15   35 1
    34   16   17 ar
    35   16   36 1
    36   17   18 ar
    37   17   37 1
    38   18   38 1
    39   19   20 2
    40   19   21 am
    41   21   39 1
    42   21   40 1
@<TRIPOS>MOLECULE
ZINC61713655
   36    37     0     0     0
SMALL
USER_CHARGES

@<TRIPOS>ATOM
      1 C1         -0.0167    1.3768    0.0096 C.ar      1 <0>        -0.0939
      2 C2          1.1837    2.0880    0.0020 C.ar      1 <0>         0.0511
      3 C3          2.3966    1.3987   -0.0133 C.ar      1 <0>        -0.0988
      4 C4          2.4028    0.0177   -0.0208 C.ar      1 <0>         0.0602
      5 C5          1.2087   -0.6826   -0.0136 C.ar      1 <0>        -0.6587
      6 C6          0.0021   -0.0041    0.0020 C.ar      1 <0>         0.0625
      7 Cl1        -1.4904   -0.8908    0.0121 Cl        1 <0>         0.0139
      8 S1          1.2246   -2.4445   -0.0238 S.o2      1 <0>         2.6918
      9 O1         -0.0222   -2.8588   -0.5654 O.2       1 <0>        -0.9180
     10 O2          2.4683   -2.8361   -0.5885 O.2       1 <0>        -0.9186
     11 N1          1.2438   -2.9431    1.5552 N.pl3     1 <0>        -1.0017
     12 C7          2.4516   -3.1848    2.3653 C.3       1 <0>         0.1182
     13 C8          1.9863   -3.0109    3.8326 C.3       1 <0>        -0.1674
     14 C9          0.5622   -3.6247    3.7826 C.3       1 <0>         0.0965
     15 H1          0.6065   -4.7098    3.8760 H         1 <0>         0.0829
     16 C10         0.0591   -3.2120    2.3834 C.3       1 <0>         0.1227
     17 O3         -0.2658   -3.0646    4.8037 O.3       1 <0>        -0.5595
     18 Cl2         3.9110   -0.8417   -0.0398 Cl        1 <0>         0.0090
     19 C11         1.1707    3.5199    0.0093 C.1       1 <0>        -0.0056
     20 C12         1.1601    4.6939    0.0153 C.1       1 <0>        -0.2449
     21 C13         1.1468    6.1658    0.0229 C.3       1 <0>         0.1398
     22 N2          2.5273    6.6680    0.0125 N.4       1 <0>        -0.6378
     23 H2         -0.9585    1.9050    0.0259 H         1 <0>         0.1591
     24 H3          3.3288    1.9440   -0.0196 H         1 <0>         0.1552
     25 H4          2.8216   -4.1970    2.2021 H         1 <0>         0.0853
     26 H5          3.2234   -2.4542    2.1229 H         1 <0>         0.0784
     27 H6          2.6283   -3.5683    4.5147 H         1 <0>         0.0926
     28 H7          1.9481   -1.9570    4.1080 H         1 <0>         0.0847
     29 H8         -0.5529   -2.3131    2.4577 H         1 <0>         0.0792
     30 H9         -0.5223   -4.0237    1.9463 H         1 <0>         0.0895
     31 H10         0.0520   -3.2289    5.7021 H         1 <0>         0.3882
     32 H11         0.6214    6.5289   -0.8604 H         1 <0>         0.1590
     33 H12         0.6381    6.5200    0.9194 H         1 <0>         0.1589
     34 H13         3.0136    6.3319    0.8301 H         1 <0>         0.4395
     35 H14         2.9982    6.3402   -0.8175 H         1 <0>         0.4398
     36 H15         2.5181    7.6770    0.0177 H         1 <0>         0.4469
@<TRIPOS>BOND
     1    1    6 ar
     2    1    2 ar
     3    1   23 1
     4    2    3 ar
     5    2   19 1
     6    3    4 ar
     7    3   24 1
     8    4    5 ar
     9    4   18 1
    10    5    6 ar
    11    5    8 1
    12    6    7 1
    13    8    9 2
    14    8   10 2
    15    8   11 1
    16   11   16 1
    17   11   12 1
    18   12   13 1
    19   12   25 1
    20   12   26 1
    21   13   14 1
    22   13   27 1
    23   13   28 1
    24   14   15 1
    25   14   16 1
    26   14   17 1
    27   16   29 1
    28   16   30 1
    29   17   31 1
    30   19   20 3
    31   20   21 1
    32   21   22 1
    33   21   32 1
    34   21   33 1
    35   22   34 1
    36   22   35 1
    37   22   36 1
@<TRIPOS>MOLECULE
ZINC02127073
   60    64     0     0     0
SMALL
USER_CHARGES
3-[(2-chlorophenyl)methyl-dimethyl-trioxo-BLAHyl]propanamide
@<TRIPOS>ATOM
      1 C1          3.8069   -0.5965   -0.0293 C.3       1 <0>        -0.1353
      2 C2          2.4786    0.1152   -0.0167 C.ar      1 <0>        -0.0089
      3 C3          1.3054   -0.6172   -0.0192 C.ar      1 <0>        -0.1212
      4 C4          0.0858    0.0361   -0.0073 C.ar      1 <0>        -0.0437
      5 C5          0.0413    1.4123    0.0064 C.ar      1 <0>        -0.2035
      6 C6          1.2154    2.1597    0.0085 C.ar      1 <0>         0.1718
      7 C7          2.4389    1.4939   -0.0025 C.ar      1 <0>        -0.0857
      8 C8          3.7232    2.2823    0.0013 C.3       1 <0>        -0.1303
      9 N1          0.9189    3.5245    0.0213 N.am      1 <0>        -0.6294
     10 C9         -0.4081    3.7560    0.0271 C.2       1 <0>         0.5206
     11 O1         -0.9541    4.8390    0.0364 O.2       1 <0>        -0.4457
     12 C10        -1.0812    2.4108    0.0152 C.3       1 <0>         0.0960
     13 C11        -1.9891    2.2469   -1.2091 C.3       1 <0>        -0.1224
     14 H1         -1.9030    1.2601   -1.6639 H         1 <0>         0.1805
     15 C12        -3.4180    2.5587   -0.6830 C.3       1 <0>        -0.1393
     16 H2         -4.1176    1.7386   -0.8444 H         1 <0>         0.1800
     17 C13        -3.2223    2.9071    0.8082 C.3       1 <0>         0.0381
     18 H3         -3.1356    3.9859    0.9375 H         1 <0>         0.1616
     19 C14        -4.3866    2.3641    1.6391 C.3       1 <0>        -0.1204
     20 C15        -4.2369    2.8261    3.0900 C.3       1 <0>        -0.1608
     21 C16        -5.3837    2.2913    3.9084 C.2       1 <0>         0.5171
     22 O2         -6.2368    1.6079    3.3830 O.2       1 <0>        -0.5324
     23 N2         -5.4613    2.5724    5.2242 N.am      1 <0>        -0.8501
     24 C17        -3.8016    3.8110   -1.4387 C.2       1 <0>         0.5329
     25 O3         -4.8567    4.3982   -1.3314 O.2       1 <0>        -0.4280
     26 N3         -2.7954    4.1702   -2.2442 N.am      1 <0>        -0.5549
     27 C18        -1.7284    3.3643   -2.1935 C.2       1 <0>         0.5278
     28 O4         -0.7108    3.5082   -2.8364 O.2       1 <0>        -0.4289
     29 C19        -2.8566    5.3501   -3.1104 C.3       1 <0>         0.1461
     30 C20        -3.3262    4.9419   -4.4829 C.ar      1 <0>        -0.1014
     31 C21        -3.7341    3.6418   -4.7157 C.ar      1 <0>        -0.1061
     32 C22        -4.1644    3.2671   -5.9746 C.ar      1 <0>        -0.1048
     33 C23        -4.1879    4.1925   -7.0016 C.ar      1 <0>        -0.0988
     34 C24        -3.7808    5.4926   -6.7700 C.ar      1 <0>        -0.0973
     35 C25        -3.3545    5.8695   -5.5087 C.ar      1 <0>        -0.0258
     36 Cl1        -2.8497    7.5044   -5.2152 Cl        1 <0>        -0.0556
     37 H4          4.1229   -0.7579   -1.0599 H         1 <0>         0.0899
     38 H5          4.5496    0.0112    0.4876 H         1 <0>         0.0828
     39 H6          3.7089   -1.5576    0.4755 H         1 <0>         0.0821
     40 H7          1.3413   -1.6966   -0.0307 H         1 <0>         0.1491
     41 H8         -0.8317   -0.5337   -0.0091 H         1 <0>         0.1423
     42 H9          4.0294    2.4829   -1.0254 H         1 <0>         0.0856
     43 H10         3.5689    3.2255    0.5254 H         1 <0>         0.0667
     44 H11         4.5002    1.7087    0.5067 H         1 <0>         0.0888
     45 H12         1.5906    4.2243    0.0259 H         1 <0>         0.4367
     46 H13        -5.3272    2.7375    1.2341 H         1 <0>         0.1357
     47 H14        -4.3822    1.2747    1.6024 H         1 <0>         0.1090
     48 H15        -3.2963    2.4528    3.4949 H         1 <0>         0.0924
     49 H16        -4.2413    3.9155    3.1267 H         1 <0>         0.1135
     50 H17        -4.7790    3.1190    5.6444 H         1 <0>         0.4045
     51 H18        -6.1995    2.2282    5.7510 H         1 <0>         0.4116
     52 H19        -3.5532    6.0747   -2.6886 H         1 <0>         0.1220
     53 H20        -1.8659    5.7987   -3.1838 H         1 <0>         0.1159
     54 H21        -3.7163    2.9186   -3.9138 H         1 <0>         0.1134
     55 H22        -4.4827    2.2511   -6.1561 H         1 <0>         0.1341
     56 H23        -4.5242    3.8991   -7.9851 H         1 <0>         0.1401
     57 H24        -3.7996    6.2155   -7.5722 H         1 <0>         0.1426
     58 N4         -1.9600    2.2530    1.1609 N.4       1 <0>        -0.4882
     59 H25        -1.5481    2.6997    1.9885 H         1 <0>         0.4426
     60 H26        -2.1181    1.2568    1.3526 H         1 <0>         0.4452
@<TRIPOS>BOND
     1    1    2 1
     2    1   37 1
     3    1   38 1
     4    1   39 1
     5    2    7 ar
     6    2    3 ar
     7    3    4 ar
     8    3   40 1
     9    4    5 ar
    10    4   41 1
    11    5   12 1
    12    5    6 ar
    13    6    7 ar
    14    6    9 1
    15    7    8 1
    16    8   42 1
    17    8   43 1
    18    8   44 1
    19    9   10 am
    20    9   45 1
    21   10   11 2
    22   10   12 1
    23   12   13 1
    24   12   58 1
    25   13   14 1
    26   13   27 1
    27   13   15 1
    28   15   16 1
    29   15   17 1
    30   15   24 1
    31   17   18 1
    32   17   19 1
    33   17   58 1
    34   19   20 1
    35   19   46 1
    36   19   47 1
    37   20   21 1
    38   20   48 1
    39   20   49 1
    40   21   22 2
    41   21   23 am
    42   23   50 1
    43   23   51 1
    44   24   25 2
    45   24   26 am
    46   26   27 am
    47   26   29 1
    48   27   28 2
    49   29   30 1
    50   29   52 1
    51   29   53 1
    52   30   35 ar
    53   30   31 ar
    54   31   32 ar
    55   31   54 1
    56   32   33 ar
    57   32   55 1
    58   33   34 ar
    59   33   56 1
    60   34   35 ar
    61   34   57 1
    62   35   36 1
    63   58   59 1
    64   58   60 1
@<TRIPOS>MOLECULE
ZINC11592930
   68    72     0     0     0
SMALL
USER_CHARGES
(7S,9R)-9-acetyl-7-[(2S,4R,5R,6R)-4-amino-5-hydroxy-6-methyl-tetrahydropyran-2-yl]oxy-6,9,11-trihydroxy-4-methoxy-8,10-dihydro-7H-tetracene-5,12-dione
@<TRIPOS>ATOM
      1 C1          7.4646   -5.2503    3.1508 C.3       1 <0>        -0.1580
      2 C2          7.2670   -3.8316    2.6129 C.3       1 <0>         0.0618
      3 H1          7.5752   -3.7928    1.5681 H         1 <0>         0.0893
      4 C3          8.1130   -2.8528    3.4315 C.3       1 <0>         0.0557
      5 H2          9.1684   -3.1003    3.3179 H         1 <0>         0.0940
      6 C4          7.8640   -1.4285    2.9261 C.3       1 <0>         0.0426
      7 H3          8.1898   -1.3473    1.8891 H         1 <0>         0.1623
      8 C5          6.3663   -1.1203    3.0181 C.3       1 <0>        -0.1572
      9 C6          5.5878   -2.1660    2.2155 C.3       1 <0>         0.2357
     10 H4          4.5188   -1.9767    2.3124 H         1 <0>         0.1180
     11 O1          5.8882   -3.4701    2.7168 O.3       1 <0>        -0.3579
     12 O2          5.9631   -2.0865    0.8390 O.3       1 <0>        -0.3747
     13 C7          5.0484   -2.7297   -0.0509 C.3       1 <0>         0.1583
     14 H5          5.4467   -2.6899   -1.0647 H         1 <0>         0.1382
     15 C8          4.8816   -4.1888    0.3673 C.3       1 <0>        -0.1328
     16 C9          3.7426   -4.7995   -0.4581 C.3       1 <0>         0.0921
     17 C10         2.4274   -4.1770    0.0051 C.3       1 <0>        -0.1012
     18 C11         2.5239   -2.6729    0.0108 C.ar      1 <0>        -0.0498
     19 C12         3.7250   -2.0097   -0.0085 C.ar      1 <0>        -0.1104
     20 C13         3.7541   -0.6088    0.0060 C.ar      1 <0>         0.1635
     21 C14         2.5695    0.1239    0.0391 C.ar      1 <0>        -0.1362
     22 C15         1.3357   -0.5573    0.0565 C.ar      1 <0>        -0.1274
     23 C16         1.3237   -1.9508    0.0413 C.ar      1 <0>         0.1575
     24 O3          0.1405   -2.6133    0.0566 O.3       1 <0>        -0.4697
     25 C17         0.0741    0.2021    0.0910 C.2       1 <0>         0.4332
     26 O4         -0.9904   -0.3852    0.1051 O.2       1 <0>        -0.4016
     27 C18         0.1050    1.6795    0.1088 C.ar      1 <0>        -0.0833
     28 C19        -1.0811    2.4052    0.1492 C.ar      1 <0>        -0.1033
     29 C20        -1.0470    3.7899    0.1595 C.ar      1 <0>        -0.0514
     30 C21         0.1583    4.4620    0.1412 C.ar      1 <0>        -0.1894
     31 C22         1.3568    3.7561    0.1068 C.ar      1 <0>         0.1806
     32 C23         1.3377    2.3580    0.0908 C.ar      1 <0>        -0.1660
     33 C24         2.5998    1.5971    0.0547 C.2       1 <0>         0.4359
     34 O5          3.6646    2.1844    0.0395 O.2       1 <0>        -0.4036
     35 O6          2.5384    4.4211    0.0883 O.3       1 <0>        -0.2855
     36 C25         2.4797    5.8487    0.1064 C.3       1 <0>         0.0179
     37 O7          4.9453    0.0392   -0.0118 O.3       1 <0>        -0.4544
     38 C26         3.7030   -6.2906   -0.2437 C.2       1 <0>         0.3393
     39 O8          4.0659   -6.7592    0.8084 O.2       1 <0>        -0.4346
     40 C27         3.2105   -7.1969   -1.3424 C.3       1 <0>        -0.2006
     41 O9          3.9473   -4.5174   -1.8439 O.3       1 <0>        -0.5390
     42 O10         7.7461   -2.9414    4.8098 O.3       1 <0>        -0.5648
     43 H6          7.2378   -5.2696    4.2168 H         1 <0>         0.0691
     44 H7          6.7983   -5.9342    2.6251 H         1 <0>         0.0859
     45 H8          8.4985   -5.5577    2.9937 H         1 <0>         0.0802
     46 H9          6.1726   -0.1288    2.6089 H         1 <0>         0.1044
     47 H10         6.0512   -1.1529    4.0611 H         1 <0>         0.1202
     48 H11         5.8063   -4.7336    0.1767 H         1 <0>         0.0872
     49 H12         4.6357   -4.2412    1.4279 H         1 <0>         0.1187
     50 H13         1.6280   -4.4830   -0.6697 H         1 <0>         0.0993
     51 H14         2.2002   -4.5256    1.0125 H         1 <0>         0.1066
     52 H15        -0.2196   -2.7957   -0.8221 H         1 <0>         0.4021
     53 H16        -2.0293    1.8886    0.1677 H         1 <0>         0.1479
     54 H17        -1.9711    4.3482    0.1869 H         1 <0>         0.1451
     55 H18         0.1712    5.5419    0.1534 H         1 <0>         0.1455
     56 H19         3.4913    6.2542    0.0887 H         1 <0>         0.1079
     57 H20         1.9317    6.2009   -0.7676 H         1 <0>         0.0622
     58 H21         1.9712    6.1801    1.0118 H         1 <0>         0.0610
     59 H22         5.2718    0.2862    0.8643 H         1 <0>         0.3820
     60 H23         3.9800   -7.4688   -1.9202 H         1 <0>         0.0942
     61 H24         2.7539   -8.0843   -0.9040 H         1 <0>         0.0954
     62 H25         2.4721   -6.6687   -1.9456 H         1 <0>         0.0857
     63 H26         3.2614   -4.8759   -2.4237 H         1 <0>         0.3861
     64 H27         8.4594    0.4728    3.4447 H         1 <0>         0.4393
     65 H28         8.3772   -0.5794    4.7300 H         1 <0>         0.4428
     66 H29         7.8779   -3.8180    5.1963 H         1 <0>         0.4082
     67 N1          8.6373   -0.4826    3.7498 N.4       1 <0>        -0.6411
     68 H30         9.6385   -0.6861    3.6473 H         1 <0>         0.4410
@<TRIPOS>BOND
     1    1    2 1
     2    1   43 1
     3    1   44 1
     4    1   45 1
     5    2    3 1
     6    2   11 1
     7    2    4 1
     8    4    5 1
     9    4    6 1
    10    4   42 1
    11    6    7 1
    12    6    8 1
    13    6   67 1
    14    8    9 1
    15    8   46 1
    16    8   47 1
    17    9   10 1
    18    9   11 1
    19    9   12 1
    20   12   13 1
    21   13   14 1
    22   13   19 1
    23   13   15 1
    24   15   16 1
    25   15   48 1
    26   15   49 1
    27   16   17 1
    28   16   38 1
    29   16   41 1
    30   17   18 1
    31   17   50 1
    32   17   51 1
    33   18   23 ar
    34   18   19 ar
    35   19   20 ar
    36   20   21 ar
    37   20   37 1
    38   21   33 1
    39   21   22 ar
    40   22   23 ar
    41   22   25 1
    42   23   24 1
    43   24   52 1
    44   25   26 2
    45   25   27 1
    46   27   32 ar
    47   27   28 ar
    48   28   29 ar
    49   28   53 1
    50   29   30 ar
    51   29   54 1
    52   30   31 ar
    53   30   55 1
    54   31   32 ar
    55   31   35 1
    56   32   33 1
    57   33   34 2
    58   35   36 1
    59   36   56 1
    60   36   57 1
    61   36   58 1
    62   37   59 1
    63   38   39 2
    64   38   40 1
    65   40   60 1
    66   40   61 1
    67   40   62 1
    68   41   63 1
    69   42   66 1
    70   64   67 1
    71   65   67 1
    72   67   68 1
@<TRIPOS>MOLECULE
ZINC16981864
   56    58     0     0     0
SMALL
USER_CHARGES
(6R)-6-[3-[4-(2-bromoethylamino)phenyl]propyl]-6-methyl-1-phenyl-1,3,5-triazine-2,4-diamine
@<TRIPOS>ATOM
      1 C1         -2.2363    1.2338    3.7711 C.3       1 <0>        -0.1768
      2 C2         -0.7655    1.6547    3.7454 C.3       1 <0>         0.4103
      3 N1         -0.6694    3.1187    3.7758 N.pl3     1 <0>        -0.7116
      4 C3          0.3304    3.7016    4.3838 C.cat     1 <0>         0.7260
      5 N2          1.2746    3.0014    5.0350 N.2       1 <0>        -0.6483
      6 C4          1.1036    1.7207    5.3060 C.2       1 <0>         0.7257
      7 N3         -0.0763    1.1210    4.9305 N.pl3     1 <0>        -0.5957
      8 C5         -0.6020    0.0427    5.6499 C.ar      1 <0>         0.1001
      9 C6         -1.0778    0.2332    6.9408 C.ar      1 <0>        -0.1089
     10 C7         -1.6006   -0.8326    7.6466 C.ar      1 <0>        -0.1006
     11 C8         -1.6410   -2.0903    7.0734 C.ar      1 <0>        -0.0942
     12 C9         -1.1634   -2.2844    5.7903 C.ar      1 <0>        -0.1009
     13 C10        -0.6441   -1.2218    5.0771 C.ar      1 <0>        -0.1121
     14 N4          2.0779    1.0058    5.9455 N.pl3     1 <0>        -0.8019
     15 N5          0.4186    5.0789    4.3560 N.pl3     1 <0>        -0.8259
     16 C11        -0.0983    1.1203    2.4765 C.3       1 <0>        -0.1437
     17 C12        -0.8102    1.6893    1.2476 C.3       1 <0>        -0.1124
     18 C13        -0.1430    1.1549   -0.0213 C.3       1 <0>        -0.0690
     19 C14        -0.8442    1.7154   -1.2318 C.ar      1 <0>        -0.1533
     20 C15        -1.9104    1.0334   -1.7889 C.ar      1 <0>        -0.0641
     21 C16        -2.5588    1.5471   -2.8947 C.ar      1 <0>        -0.1977
     22 C17        -2.1317    2.7446   -3.4543 C.ar      1 <0>         0.2251
     23 C18        -1.0567    3.4243   -2.8956 C.ar      1 <0>        -0.1939
     24 C19        -0.4164    2.9078   -1.7863 C.ar      1 <0>        -0.0667
     25 N6         -2.7818    3.2644   -4.5759 N.pl3     1 <0>        -0.7579
     26 C20        -3.9153    2.5462   -5.1638 C.3       1 <0>         0.1273
     27 C21        -4.4409    3.3243   -6.3718 C.3       1 <0>        -0.1001
     28 Br1        -5.9620    2.3605   -7.1608 Br        1 <0>        -0.1309
     29 H1         -2.7479    1.6347    2.8837 H         1 <0>         0.0998
     30 H2         -2.7147    1.6283    4.6797 H         1 <0>         0.0801
     31 H3         -2.3036    0.1359    3.7684 H         1 <0>         0.0989
     32 H4         -1.0424    1.2144    7.3907 H         1 <0>         0.1236
     33 H5         -1.9745   -0.6843    8.6490 H         1 <0>         0.1367
     34 H6         -2.0463   -2.9230    7.6292 H         1 <0>         0.1369
     35 H7         -1.1960   -3.2680    5.3455 H         1 <0>         0.1385
     36 H8         -0.2709   -1.3740    4.0751 H         1 <0>         0.1321
     37 H9          1.9228   -0.0608    6.1654 H         1 <0>         0.4550
     38 H10         3.0169    1.4972    6.2401 H         1 <0>         0.4674
     39 H11         1.2528    5.5869    4.8620 H         1 <0>         0.4667
     40 H12        -0.3453    5.6684    3.8279 H         1 <0>         0.4512
     41 H13         0.9586    1.4250    2.4618 H         1 <0>         0.0756
     42 H14        -0.1636    0.0223    2.4624 H         1 <0>         0.0964
     43 H15        -1.8671    1.3846    1.2623 H         1 <0>         0.0771
     44 H16        -0.7449    2.7873    1.2616 H         1 <0>         0.0650
     45 H17         0.9139    1.4595   -0.0360 H         1 <0>         0.0683
     46 H18        -0.2083    0.0569   -0.0354 H         1 <0>         0.0722
     47 H19        -2.2390    0.1000   -1.3562 H         1 <0>         0.1187
     48 H20        -3.3942    1.0161   -3.3267 H         1 <0>         0.1205
     49 H21        -0.7223    4.3558   -3.3280 H         1 <0>         0.1202
     50 H22         0.4196    3.4356   -1.3516 H         1 <0>         0.1161
     51 H23        -2.4428    4.2130   -5.0178 H         1 <0>         0.4218
     52 H24        -3.5887    1.5463   -5.4855 H         1 <0>         0.0715
     53 H25        -4.7150    2.4474   -4.4150 H         1 <0>         0.0708
     54 H26        -4.7674    4.3242   -6.0500 H         1 <0>         0.1073
     55 H27        -3.6412    3.4231   -7.1206 H         1 <0>         0.1079
     56 H28        -1.4435    3.7260    3.2840 H         1 <0>         0.4556
@<TRIPOS>BOND
     1    1    2 1
     2    1   29 1
     3    1   30 1
     4    1   31 1
     5    2    7 1
     6    2    3 1
     7    2   16 1
     8    3    4 2
     9    3   56 1
    10    4    5 1
    11    4   15 1
    12    5    6 2
    13    6    7 1
    14    6   14 1
    15    7    8 1
    16    8   13 ar
    17    8    9 ar
    18    9   10 ar
    19    9   32 1
    20   10   11 ar
    21   10   33 1
    22   11   12 ar
    23   11   34 1
    24   12   13 ar
    25   12   35 1
    26   13   36 1
    27   14   37 1
    28   14   38 1
    29   15   39 1
    30   15   40 1
    31   16   17 1
    32   16   41 1
    33   16   42 1
    34   17   18 1
    35   17   43 1
    36   17   44 1
    37   18   19 1
    38   18   45 1
    39   18   46 1
    40   19   24 ar
    41   19   20 ar
    42   20   21 ar
    43   20   47 1
    44   21   22 ar
    45   21   48 1
    46   22   23 ar
    47   22   25 1
    48   23   24 ar
    49   23   49 1
    50   24   50 1
    51   25   26 1
    52   25   51 1
    53   26   27 1
    54   26   52 1
    55   26   53 1
    56   27   28 1
    57   27   54 1
    58   27   55 1
@<TRIPOS>MOLECULE
ZINC40825346
   70    73     0     0     0
SMALL
USER_CHARGES

@<TRIPOS>ATOM
      1 C1          0.5687    1.6762   -0.0857 C.3       1 <0>        -0.1010
      2 C2          0.4643    0.1750   -0.0044 C.2       1 <0>        -0.0173
      3 C3          0.1513   -0.7034   -1.0488 C.2       1 <0>        -0.1653
      4 C4          0.1638   -1.9780   -0.5338 C.2       1 <0>         0.0881
      5 O1          0.4709   -1.8964    0.7588 O.3       1 <0>        -0.1467
      6 C5          0.6621   -0.6024    1.1025 C.2       1 <0>        -0.1170
      7 C6          1.0180   -0.1146    2.4398 C.2       1 <0>         0.6182
      8 O2          1.1618    1.0780    2.6342 O.2       1 <0>        -0.5061
      9 N1          1.1857   -0.9875    3.4530 N.am      1 <0>        -0.7243
     10 C7          1.5419   -0.4993    4.7913 C.3       1 <0>         0.1406
     11 C8          3.0632   -0.3701    4.8905 C.3       1 <0>        -0.1449
     12 C9          3.4510    0.1257    6.2831 C.3       1 <0>         0.0600
     13 N2          2.8918   -0.7075    7.3372 N.4       1 <0>        -0.4915
     14 C10         1.4871   -1.0700    7.2381 C.3       1 <0>         0.0627
     15 C11         1.0774   -1.5121    5.8372 C.3       1 <0>        -0.1415
     16 C12         0.5748    0.0629    7.7156 C.3       1 <0>        -0.1759
     17 C13         1.2493   -2.2702    8.1856 C.3       1 <0>        -0.1804
     18 C14         3.0670    1.5959    6.4468 C.3       1 <0>        -0.1715
     19 C15         4.9913    0.0398    6.3876 C.3       1 <0>        -0.1797
     20 C16        -0.1340   -3.2010   -1.3637 C.3       1 <0>        -0.0492
     21 C17        -0.9161   -2.7893   -2.6138 C.3       1 <0>        -0.1108
     22 C18        -0.1846   -1.6722   -3.3654 C.3       1 <0>        -0.1261
     23 C19        -0.1522   -0.4398   -2.4733 C.2       1 <0>         0.2059
     24 N3         -0.3744    0.7546   -2.9281 N.2       1 <0>        -0.2793
     25 N4         -0.6572    0.9455   -4.2869 N.pl3     1 <0>        -0.5339
     26 C20        -0.8880    2.1864   -4.7594 C.2       1 <0>         0.5815
     27 S1         -1.2335    2.4196   -6.4199 S.2       1 <0>        -0.5802
     28 N5         -0.8469    3.2438   -3.9247 N.pl3     1 <0>        -0.6095
     29 C21        -1.2032    4.5145   -4.3877 C.ar      1 <0>         0.1150
     30 C22        -2.2969    4.6670   -5.2300 C.ar      1 <0>        -0.0738
     31 C23        -2.6460    5.9232   -5.6855 C.ar      1 <0>        -0.1094
     32 C24        -1.9077    7.0285   -5.3041 C.ar      1 <0>        -0.1104
     33 C25        -0.8178    6.8801   -4.4659 C.ar      1 <0>        -0.1136
     34 C26        -0.4674    5.6275   -4.0016 C.ar      1 <0>        -0.1216
     35 H1          1.5909    1.9560   -0.3406 H         1 <0>         0.0808
     36 H2         -0.1114    2.0467   -0.8527 H         1 <0>         0.0783
     37 H3          0.3022    2.1117    0.8773 H         1 <0>         0.0896
     38 H4          1.0711   -1.9382    3.2981 H         1 <0>         0.4107
     39 H5          1.0651    0.4628    4.9551 H         1 <0>         0.1106
     40 H6          3.5236   -1.3424    4.7085 H         1 <0>         0.0929
     41 H7          3.4166    0.3396    4.1406 H         1 <0>         0.1155
     42 H8          3.4430   -1.5678    7.3924 H         1 <0>         0.4249
     43 H9         -0.0104   -1.6082    5.7895 H         1 <0>         0.1174
     44 H10         1.5228   -2.4865    5.6192 H         1 <0>         0.0966
     45 H11         0.6589    0.9091    7.0337 H         1 <0>         0.0835
     46 H12        -0.4576   -0.2861    7.7360 H         1 <0>         0.1058
     47 H13         0.8736    0.3723    8.7172 H         1 <0>         0.0841
     48 H14         1.4973   -1.9815    9.2070 H         1 <0>         0.0854
     49 H15         0.2024   -2.5698    8.1367 H         1 <0>         0.1074
     50 H16         1.8807   -3.1046    7.8804 H         1 <0>         0.0821
     51 H17         2.0129    1.7255    6.2017 H         1 <0>         0.0837
     52 H18         3.2409    1.9042    7.4777 H         1 <0>         0.0817
     53 H19         3.6734    2.2064    5.7777 H         1 <0>         0.1063
     54 H20         5.4431    0.6661    5.6184 H         1 <0>         0.1069
     55 H21         5.3086    0.3864    7.3711 H         1 <0>         0.0843
     56 H22         5.3079   -0.9937    6.2471 H         1 <0>         0.0812
     57 H23         0.8013   -3.6759   -1.6600 H         1 <0>         0.1086
     58 H24        -0.7282   -3.9021   -0.7776 H         1 <0>         0.1044
     59 H25        -1.0245   -3.6527   -3.2702 H         1 <0>         0.1014
     60 H26        -1.9045   -2.4366   -2.3192 H         1 <0>         0.0789
     61 H27         0.8334   -1.9880   -3.5933 H         1 <0>         0.1069
     62 H28        -0.7146   -1.4430   -4.2899 H         1 <0>         0.0872
     63 H29        -0.6868    0.1845   -4.8877 H         1 <0>         0.4195
     64 H30        -0.5702    3.1234   -3.0028 H         1 <0>         0.4154
     65 H31        -2.8735    3.8041   -5.5288 H         1 <0>         0.1419
     66 H32        -3.4964    6.0424   -6.3405 H         1 <0>         0.1299
     67 H33        -2.1825    8.0097   -5.6620 H         1 <0>         0.1268
     68 H34        -0.2428    7.7452   -4.1705 H         1 <0>         0.1285
     69 H35         0.3809    5.5128   -3.3431 H         1 <0>         0.1229
     70 H36         3.0408   -0.2358    8.2326 H         1 <0>         0.4270
@<TRIPOS>BOND
     1    1    2 1
     2    1   35 1
     3    1   36 1
     4    1   37 1
     5    2    6 2
     6    2    3 1
     7    3   23 1
     8    3    4 2
     9    4    5 1
    10    4   20 1
    11    5    6 1
    12    6    7 1
    13    7    8 2
    14    7    9 am
    15    9   10 1
    16    9   38 1
    17   10   15 1
    18   10   11 1
    19   10   39 1
    20   11   12 1
    21   11   40 1
    22   11   41 1
    23   12   13 1
    24   12   18 1
    25   12   19 1
    26   13   14 1
    27   13   42 1
    28   13   70 1
    29   14   15 1
    30   14   16 1
    31   14   17 1
    32   15   43 1
    33   15   44 1
    34   16   45 1
    35   16   46 1
    36   16   47 1
    37   17   48 1
    38   17   49 1
    39   17   50 1
    40   18   51 1
    41   18   52 1
    42   18   53 1
    43   19   54 1
    44   19   55 1
    45   19   56 1
    46   20   21 1
    47   20   57 1
    48   20   58 1
    49   21   22 1
    50   21   59 1
    51   21   60 1
    52   22   23 1
    53   22   61 1
    54   22   62 1
    55   23   24 2
    56   24   25 1
    57   25   26 1
    58   25   63 1
    59   26   27 2
    60   26   28 1
    61   28   29 1
    62   28   64 1
    63   29   34 ar
    64   29   30 ar
    65   30   31 ar
    66   30   65 1
    67   31   32 ar
    68   31   66 1
    69   32   33 ar
    70   32   67 1
    71   33   34 ar
    72   33   68 1
    73   34   69 1
@<TRIPOS>MOLECULE
ZINC13493130
   63    65     0     0     0
SMALL
USER_CHARGES

@<TRIPOS>ATOM
      1 C1         -0.0184    1.5028    0.0103 C.3       1 <0>        -0.1064
      2 C2          0.0021   -0.0041    0.0020 C.2       1 <0>         0.0250
      3 C3          0.0054   -0.6636   -1.1757 C.2       1 <0>         0.0346
      4 N1          0.0228   -1.9949   -1.2336 N.2       1 <0>        -0.4986
      5 C4          0.0378   -2.7160   -0.1331 C.2       1 <0>         0.3521
      6 C5          0.0352   -2.0347    1.1666 C.2       1 <0>         0.4959
      7 O1          0.0489   -2.6725    2.2058 O.2       1 <0>        -0.5318
      8 N2          0.0225   -0.6831    1.1842 N.am      1 <0>        -0.4655
      9 C6          0.0252    0.0426    2.4569 C.3       1 <0>         0.0776
     10 C7         -1.3945    0.2725    2.9070 C.2       1 <0>         0.5042
     11 O2         -2.3176   -0.1300    2.2313 O.2       1 <0>        -0.5017
     12 N3         -1.6383    0.9256    4.0605 N.am      1 <0>        -0.7356
     13 C8         -3.0184    1.1492    4.4981 C.3       1 <0>         0.1645
     14 C9         -3.0156    1.8956    5.8073 C.ar      1 <0>        -0.1604
     15 C10        -3.1975    1.2141    7.0037 C.ar      1 <0>         0.0565
     16 C11        -3.1882    1.9367    8.1828 C.ar      1 <0>        -0.1987
     17 C12        -2.9981    3.3140    8.1309 C.ar      1 <0>         0.4593
     18 N4         -2.8281    3.9274    6.9700 N.ar      1 <0>        -0.5035
     19 C13        -2.8266    3.2627    5.8299 C.ar      1 <0>         0.2012
     20 C14        -2.6220    4.0067    4.5354 C.3       1 <0>        -0.1493
     21 N5         -2.9870    4.0527    9.3083 N.pl3     1 <0>        -0.8171
     22 N6          0.0554   -4.1029   -0.2006 N.pl3     1 <0>        -0.6857
     23 C15         0.0574   -4.7729   -1.5035 C.3       1 <0>         0.1420
     24 C16         0.0781   -6.2888   -1.2974 C.3       1 <0>        -0.0357
     25 C17         1.3365   -6.6807   -0.5205 C.3       1 <0>        -0.1416
     26 C18        -1.1617   -6.7131   -0.5076 C.3       1 <0>        -0.1416
     27 C19         0.0801   -6.9779   -2.6376 C.ar      1 <0>        -0.0711
     28 C20         0.0701   -6.2294   -3.7997 C.ar      1 <0>        -0.1222
     29 C21         0.0720   -6.8616   -5.0291 C.ar      1 <0>        -0.1152
     30 C22         0.0843   -8.2422   -5.0963 C.ar      1 <0>        -0.1216
     31 C23         0.0952   -8.9907   -3.9342 C.ar      1 <0>        -0.1166
     32 C24         0.0976   -8.3585   -2.7048 C.ar      1 <0>        -0.1124
     33 H1          1.0042    1.8801    0.0026 H         1 <0>         0.0821
     34 H2         -0.5455    1.8639   -0.8728 H         1 <0>         0.0908
     35 H3         -0.5286    1.8543    0.9071 H         1 <0>         0.0609
     36 H4         -0.0066   -0.0974   -2.0953 H         1 <0>         0.1696
     37 H5          0.5542   -0.5437    3.2083 H         1 <0>         0.1310
     38 H6          0.5251    1.0024    2.3268 H         1 <0>         0.1277
     39 H7         -0.8999    1.2476    4.6010 H         1 <0>         0.4038
     40 H8         -3.5473    1.7355    3.7467 H         1 <0>         0.0972
     41 H9         -3.5183    0.1894    4.6282 H         1 <0>         0.0996
     42 H10        -3.3432    0.1441    7.0129 H         1 <0>         0.1786
     43 H11        -3.3271    1.4387    9.1310 H         1 <0>         0.1843
     44 H12        -3.5875    4.3277    4.1443 H         1 <0>         0.1197
     45 H13        -1.9937    4.8794    4.7133 H         1 <0>         0.1004
     46 H14        -2.1368    3.3511    3.8123 H         1 <0>         0.1166
     47 H15        -3.1115    3.6078   10.1612 H         1 <0>         0.4427
     48 H16        -2.8548    5.0132    9.2771 H         1 <0>         0.4228
     49 H17         0.0664   -4.6281    0.6148 H         1 <0>         0.4155
     50 H18        -0.8391   -4.4936   -2.0570 H         1 <0>         0.0750
     51 H19         0.9407   -4.4706   -2.0662 H         1 <0>         0.0756
     52 H20         1.3351   -6.1823    0.4489 H         1 <0>         0.0580
     53 H21         1.3513   -7.7607   -0.3737 H         1 <0>         0.0642
     54 H22         2.2198   -6.3785   -1.0832 H         1 <0>         0.0618
     55 H23        -2.0582   -6.4339   -1.0611 H         1 <0>         0.0615
     56 H24        -1.1470   -7.7930   -0.3608 H         1 <0>         0.0641
     57 H25        -1.1632   -6.2146    0.4617 H         1 <0>         0.0578
     58 H26         0.0605   -5.1507   -3.7472 H         1 <0>         0.1272
     59 H27         0.0635   -6.2768   -5.9370 H         1 <0>         0.1230
     60 H28         0.0850   -8.7361   -6.0567 H         1 <0>         0.1220
     61 H29         0.1044  -10.0694   -3.9867 H         1 <0>         0.1226
     62 H30         0.1099   -8.9433   -1.7969 H         1 <0>         0.1211
     63 H31        -2.6975    4.8885    6.9574 H         1 <0>         0.4422
@<TRIPOS>BOND
     1    1    2 1
     2    1   33 1
     3    1   34 1
     4    1   35 1
     5    2    8 1
     6    2    3 2
     7    3    4 1
     8    3   36 1
     9    4    5 2
    10    5    6 1
    11    5   22 1
    12    6    7 2
    13    6    8 am
    14    8    9 1
    15    9   10 1
    16    9   37 1
    17    9   38 1
    18   10   11 2
    19   10   12 am
    20   12   13 1
    21   12   39 1
    22   13   14 1
    23   13   40 1
    24   13   41 1
    25   14   19 ar
    26   14   15 ar
    27   15   16 ar
    28   15   42 1
    29   16   17 ar
    30   16   43 1
    31   17   18 ar
    32   17   21 1
    33   18   19 ar
    34   18   63 1
    35   19   20 1
    36   20   44 1
    37   20   45 1
    38   20   46 1
    39   21   47 1
    40   21   48 1
    41   22   23 1
    42   22   49 1
    43   23   24 1
    44   23   50 1
    45   23   51 1
    46   24   25 1
    47   24   26 1
    48   24   27 1
    49   25   52 1
    50   25   53 1
    51   25   54 1
    52   26   55 1
    53   26   56 1
    54   26   57 1
    55   27   32 ar
    56   27   28 ar
    57   28   29 ar
    58   28   58 1
    59   29   30 ar
    60   29   59 1
    61   30   31 ar
    62   30   60 1
    63   31   32 ar
    64   31   61 1
    65   32   62 1
@<TRIPOS>MOLECULE
ZINC05105415
   57    60     0     0     0
SMALL
USER_CHARGES
3-diethylamino-N-(6,11-dihydroxy-5,12-dioxo-tetracen-1-yl)-propanamide
@<TRIPOS>ATOM
      1 C1         -1.1269   -8.7150   -2.9431 C.3       1 <0>        -0.1883
      2 C2         -1.7803   -8.5318   -1.5718 C.3       1 <0>        -0.0155
      3 C3         -0.6786  -10.5369   -0.7790 C.3       1 <0>        -0.0117
      4 C4         -1.9633  -11.3193   -0.4990 C.3       1 <0>        -0.1875
      5 C5          0.3565   -8.3738   -0.4443 C.3       1 <0>         0.0052
      6 C6          0.0894   -6.9518    0.0530 C.3       1 <0>        -0.1720
      7 C7          1.3917   -6.1993    0.1464 C.2       1 <0>         0.5243
      8 O1          2.4312   -6.7464   -0.1550 O.2       1 <0>        -0.5142
      9 N1          1.4012   -4.9182    0.5650 N.am      1 <0>        -0.6508
     10 C8          2.5898   -4.1932    0.5606 C.ar      1 <0>         0.1852
     11 C9          3.7954   -4.8259    0.8479 C.ar      1 <0>        -0.1049
     12 C10         4.9767   -4.1117    0.8436 C.ar      1 <0>        -0.0746
     13 C11         4.9801   -2.7579    0.5550 C.ar      1 <0>        -0.0761
     14 C12         3.7864   -2.1034    0.2651 C.ar      1 <0>        -0.0926
     15 C13         2.5775   -2.8243    0.2670 C.ar      1 <0>        -0.1463
     16 C14         1.3047   -2.1438   -0.0371 C.2       1 <0>         0.4534
     17 O2          0.3041   -2.7912   -0.2851 O.2       1 <0>        -0.4460
     18 C15         1.2590   -0.6745   -0.0375 C.ar      1 <0>        -0.1638
     19 C16         2.5177    0.0782   -0.0400 C.ar      1 <0>        -0.1638
     20 C17         2.4934    1.4657   -0.0387 C.ar      1 <0>         0.2005
     21 C18         1.2505    2.1461   -0.0330 C.ar      1 <0>        -0.0577
     22 C19         1.2126    3.5484   -0.0283 C.ar      1 <0>        -0.0932
     23 C20         0.0110    4.1951   -0.0228 C.ar      1 <0>        -0.0965
     24 C21        -1.1820    3.4814   -0.0219 C.ar      1 <0>        -0.0970
     25 C22        -1.1804    2.1167   -0.0213 C.ar      1 <0>        -0.0957
     26 C23         0.0370    1.4201   -0.0316 C.ar      1 <0>        -0.0608
     27 C24         0.0487    0.0031   -0.0347 C.ar      1 <0>         0.1976
     28 O3         -1.1164   -0.6863   -0.0352 O.3       1 <0>        -0.4724
     29 O4          3.6518    2.1660   -0.0434 O.3       1 <0>        -0.4704
     30 C25         3.7896   -0.6571   -0.0427 C.2       1 <0>         0.4378
     31 O5          4.8327   -0.0831   -0.2947 O.2       1 <0>        -0.4122
     32 H1         -1.7254   -8.2099   -3.7012 H         1 <0>         0.1065
     33 H2         -0.1242   -8.2880   -2.9278 H         1 <0>         0.0802
     34 H3         -1.0657   -9.7778   -3.1773 H         1 <0>         0.0825
     35 H4         -2.7461   -9.0370   -1.5591 H         1 <0>         0.1317
     36 H5         -1.9236   -7.4690   -1.3768 H         1 <0>         0.1283
     37 H6         -0.3823  -10.6846   -1.8175 H         1 <0>         0.1344
     38 H7          0.1141  -10.8925   -0.1209 H         1 <0>         0.1302
     39 H8         -2.7303  -11.0270   -1.2162 H         1 <0>         0.0800
     40 H9         -1.7661  -12.3872   -0.5929 H         1 <0>         0.1066
     41 H10        -2.3087  -11.1010    0.5115 H         1 <0>         0.0797
     42 H11         0.8239   -8.3328   -1.4281 H         1 <0>         0.1428
     43 H12         1.0215   -8.8836    0.2529 H         1 <0>         0.1400
     44 H13        -0.3780   -6.9927    1.0369 H         1 <0>         0.1219
     45 H14        -0.5756   -6.4420   -0.6441 H         1 <0>         0.1230
     46 H15         0.5800   -4.5013    0.8694 H         1 <0>         0.4233
     47 H16         3.8070   -5.8817    1.0751 H         1 <0>         0.1524
     48 H17         5.9064   -4.6134    1.0678 H         1 <0>         0.1465
     49 H18         5.9101   -2.2089    0.5543 H         1 <0>         0.1496
     50 H19         2.1322    4.1148   -0.0294 H         1 <0>         0.1437
     51 H20        -0.0135    5.2748   -0.0194 H         1 <0>         0.1372
     52 H21        -2.1217    4.0136   -0.0180 H         1 <0>         0.1364
     53 H22        -2.1143    1.5744   -0.0167 H         1 <0>         0.1412
     54 H23        -1.4555   -0.8847   -0.9188 H         1 <0>         0.4027
     55 H24         3.9844    2.3702   -0.9281 H         1 <0>         0.4071
     56 N2         -0.9264   -9.1047   -0.5101 N.4       1 <0>        -0.3961
     57 H25        -1.4090   -9.0133    0.3916 H         1 <0>         0.4279
@<TRIPOS>BOND
     1    1    2 1
     2    1   32 1
     3    1   33 1
     4    1   34 1
     5    2   35 1
     6    2   36 1
     7    2   56 1
     8    3    4 1
     9    3   37 1
    10    3   38 1
    11    3   56 1
    12    4   39 1
    13    4   40 1
    14    4   41 1
    15    5    6 1
    16    5   42 1
    17    5   43 1
    18    5   56 1
    19    6    7 1
    20    6   44 1
    21    6   45 1
    22    7    8 2
    23    7    9 am
    24    9   10 1
    25    9   46 1
    26   10   15 ar
    27   10   11 ar
    28   11   12 ar
    29   11   47 1
    30   12   13 ar
    31   12   48 1
    32   13   14 ar
    33   13   49 1
    34   14   30 1
    35   14   15 ar
    36   15   16 1
    37   16   17 2
    38   16   18 1
    39   18   27 ar
    40   18   19 ar
    41   19   20 ar
    42   19   30 1
    43   20   21 ar
    44   20   29 1
    45   21   26 ar
    46   21   22 ar
    47   22   23 ar
    48   22   50 1
    49   23   24 ar
    50   23   51 1
    51   24   25 ar
    52   24   52 1
    53   25   26 ar
    54   25   53 1
    55   26   27 ar
    56   27   28 1
    57   28   54 1
    58   29   55 1
    59   30   31 2
    60   56   57 1
@<TRIPOS>MOLECULE
ZINC17287468
   52    53     0     0     0
SMALL
USER_CHARGES
N-(3-chloro-2-methyl-phenyl)-2-[[2-[[2-[(2-chlorophenyl)amino]-2-oxo-ethyl]-methyl-amino]acetyl]amino]acetamide
@<TRIPOS>ATOM
      1 C1         11.8615    0.7711    2.9872 C.3       1 <0>        -0.1238
      2 C2         11.8608    2.2076    2.5315 C.ar      1 <0>        -0.1006
      3 C3         10.8001    2.6986    1.7816 C.ar      1 <0>         0.1434
      4 C4         10.8006    4.0241    1.3680 C.ar      1 <0>        -0.1238
      5 C5         11.8578    4.8495    1.6987 C.ar      1 <0>        -0.0930
      6 C6         12.9154    4.3573    2.4404 C.ar      1 <0>        -0.1144
      7 C7         12.9187    3.0364    2.8541 C.ar      1 <0>        -0.0193
      8 Cl1        14.2492    2.4222    3.7849 Cl        1 <0>        -0.0531
      9 N1          9.7302    1.8607    1.4483 N.am      1 <0>        -0.6539
     10 C8          8.5134    2.3862    1.2040 C.2       1 <0>         0.5101
     11 O1          8.3620    3.5896    1.2013 O.2       1 <0>        -0.5137
     12 C9          7.3410    1.4787    0.9342 C.3       1 <0>         0.0975
     13 N2          6.1415    2.2868    0.7004 N.am      1 <0>        -0.6918
     14 C10         4.9645    1.6853    0.4371 C.2       1 <0>         0.5052
     15 O2          4.8983    0.4751    0.3936 O.2       1 <0>        -0.5209
     16 C11         3.7307    2.5165    0.1966 C.3       1 <0>        -0.0253
     17 C12         2.7677    0.9004   -1.3276 C.3       1 <0>        -0.0605
     18 C13         1.3278    2.3869   -0.0708 C.3       1 <0>        -0.0255
     19 C14         0.1668    1.4265   -0.0969 C.2       1 <0>         0.5026
     20 O3          0.3691    0.2307   -0.1104 O.2       1 <0>        -0.5036
     21 N3         -1.0964    1.8964   -0.1107 N.am      1 <0>        -0.6396
     22 C15        -2.1723    1.0083   -0.2257 C.ar      1 <0>         0.1306
     23 C16        -2.0356   -0.3084    0.1935 C.ar      1 <0>        -0.1167
     24 C17        -3.1005   -1.1810    0.0832 C.ar      1 <0>        -0.0933
     25 C18        -4.2992   -0.7478   -0.4533 C.ar      1 <0>        -0.1060
     26 C19        -4.4379    0.5611   -0.8767 C.ar      1 <0>        -0.0874
     27 C20        -3.3777    1.4409   -0.7648 C.ar      1 <0>        -0.0580
     28 Cl2        -3.5517    3.0840   -1.2975 Cl        1 <0>        -0.0564
     29 H1         12.3458    0.1509    2.2329 H         1 <0>         0.0806
     30 H2         12.4046    0.6889    3.9286 H         1 <0>         0.0835
     31 H3         10.8345    0.4346    3.1296 H         1 <0>         0.0661
     32 H4          9.9751    4.4095    0.7879 H         1 <0>         0.1574
     33 H5         11.8582    5.8805    1.3771 H         1 <0>         0.1389
     34 H6         13.7409    5.0046    2.6973 H         1 <0>         0.1387
     35 H7          9.8642    0.9016    1.3931 H         1 <0>         0.4183
     36 H8          7.1792    0.8287    1.7941 H         1 <0>         0.1173
     37 H9          7.5471    0.8710    0.0530 H         1 <0>         0.1171
     38 H10         6.1945    3.2547    0.7351 H         1 <0>         0.4229
     39 H11         3.8925    3.1666   -0.6633 H         1 <0>         0.1680
     40 H12         3.5246    3.1242    1.0777 H         1 <0>         0.1642
     41 H13         2.7863    1.6065   -2.1577 H         1 <0>         0.1211
     42 H14         3.7081    0.3501   -1.2975 H         1 <0>         0.1391
     43 H15         1.9421    0.2017   -1.4632 H         1 <0>         0.1391
     44 H16         1.2903    3.0262   -0.9529 H         1 <0>         0.1696
     45 H17         1.2699    3.0026    0.8268 H         1 <0>         0.1656
     46 H18        -1.2599    2.8499   -0.0410 H         1 <0>         0.4217
     47 H19        -1.0984   -0.6489    0.6084 H         1 <0>         0.1607
     48 H20        -2.9954   -2.2043    0.4123 H         1 <0>         0.1397
     49 H21        -5.1289   -1.4335   -0.5420 H         1 <0>         0.1416
     50 H22        -5.3753    0.8962   -1.2955 H         1 <0>         0.1452
     51 N4          2.5866    1.6126   -0.0452 N.4       1 <0>        -0.3696
     52 H23         2.5391    0.9240    0.7150 H         1 <0>         0.4443
@<TRIPOS>BOND
     1    1    2 1
     2    1   29 1
     3    1   30 1
     4    1   31 1
     5    2    7 ar
     6    2    3 ar
     7    3    4 ar
     8    3    9 1
     9    4    5 ar
    10    4   32 1
    11    5    6 ar
    12    5   33 1
    13    6    7 ar
    14    6   34 1
    15    7    8 1
    16    9   10 am
    17    9   35 1
    18   10   11 2
    19   10   12 1
    20   12   13 1
    21   12   36 1
    22   12   37 1
    23   13   14 am
    24   13   38 1
    25   14   15 2
    26   14   16 1
    27   16   39 1
    28   16   40 1
    29   16   51 1
    30   17   41 1
    31   17   42 1
    32   17   43 1
    33   17   51 1
    34   18   19 1
    35   18   44 1
    36   18   45 1
    37   18   51 1
    38   19   20 2
    39   19   21 am
    40   21   22 1
    41   21   46 1
    42   22   27 ar
    43   22   23 ar
    44   23   24 ar
    45   23   47 1
    46   24   25 ar
    47   24   48 1
    48   25   26 ar
    49   25   49 1
    50   26   27 ar
    51   26   50 1
    52   27   28 1
    53   51   52 1
@<TRIPOS>MOLECULE
ZINC06017008
   39    42     0     0     0
SMALL
USER_CHARGES

@<TRIPOS>ATOM
      1 C1         -0.0837    1.4333   -0.9776 C.3       1 <0>        -0.0807
      2 C2         -0.0414   -0.0731   -0.9683 C.2       1 <0>        -0.1135
      3 C3         -1.0533   -0.9565   -1.1673 C.2       1 <0>        -0.1754
      4 C4         -0.7862   -2.3066   -1.1142 C.2       1 <0>        -0.1104
      5 C5          0.4982   -2.7139   -0.8610 C.2       1 <0>        -0.1491
      6 S1          1.3532   -1.1548   -0.7005 S.3       1 <0>         0.1188
      7 C6          1.0345   -4.0826   -0.7541 C.2       1 <0>         0.1338
      8 C7          2.3324   -4.4337   -0.4927 C.2       1 <0>        -0.1423
      9 C8          2.3463   -5.8449   -0.4907 C.2       1 <0>        -0.0226
     10 N1          1.1168   -6.2513   -0.7388 N.2       1 <0>        -0.2407
     11 N2          0.3325   -5.2454   -0.8907 N.pl3     1 <0>        -0.3484
     12 H1         -0.6175   -5.3035   -1.0775 H         1 <0>         0.4584
     13 C9          3.5220   -6.7080   -0.2547 C.2       1 <0>         0.6248
     14 O1          4.6085   -6.2085   -0.0358 O.2       1 <0>        -0.4652
     15 N3          3.3900   -8.0490   -0.2820 N.am      1 <0>        -0.5243
     16 N4          4.5049   -8.8673   -0.0582 N.pl3     1 <0>        -0.2705
     17 C10         4.3539  -10.1907    0.0339 C.2       1 <0>         0.2988
     18 C11         3.1405  -10.9213    0.0459 C.ar      1 <0>        -0.2280
     19 C12         1.7941  -10.5444   -0.0277 C.ar      1 <0>         0.0343
     20 C13         0.8092  -11.5132    0.0096 C.ar      1 <0>        -0.1276
     21 C14         1.1497  -12.8524    0.1198 C.ar      1 <0>         0.0430
     22 C15         2.4767  -13.2448    0.1938 C.ar      1 <0>        -0.1304
     23 C16         3.4906  -12.2918    0.1582 C.ar      1 <0>         0.2503
     24 N5          4.8486  -12.4113    0.2134 N.am      1 <0>        -0.6137
     25 C17         5.4359  -11.2307    0.1409 C.2       1 <0>         0.5703
     26 O2          6.6354  -11.0216    0.1600 O.2       1 <0>        -0.3950
     27 Br1        -1.0108  -11.0097   -0.0894 Br        1 <0>         0.0125
     28 H2          0.9150    1.8260   -0.7864 H         1 <0>         0.0785
     29 H3         -0.4307    1.7810   -1.9507 H         1 <0>         0.0898
     30 H4         -0.7659    1.7825   -0.2026 H         1 <0>         0.0898
     31 H5         -2.0553   -0.6048   -1.3645 H         1 <0>         0.1435
     32 H6         -1.5730   -3.0301   -1.2685 H         1 <0>         0.1335
     33 H7          3.1683   -3.7709   -0.3241 H         1 <0>         0.1781
     34 H8          2.5231   -8.4475   -0.4567 H         1 <0>         0.4480
     35 H9          5.3865   -8.4724    0.0299 H         1 <0>         0.4800
     36 H10         1.5264   -9.5015   -0.1128 H         1 <0>         0.1473
     37 H11         0.3706  -13.5997    0.1486 H         1 <0>         0.1735
     38 H12         2.7247  -14.2924    0.2797 H         1 <0>         0.1730
     39 H13         5.3215  -13.2546    0.2917 H         1 <0>         0.4579
@<TRIPOS>BOND
     1    1    2 1
     2    1   28 1
     3    1   29 1
     4    1   30 1
     5    2    6 1
     6    2    3 2
     7    3    4 1
     8    3   31 1
     9    4    5 2
    10    4   32 1
    11    5    6 1
    12    5    7 1
    13    7   11 1
    14    7    8 2
    15    8    9 1
    16    8   33 1
    17    9   10 2
    18    9   13 1
    19   10   11 1
    20   11   12 1
    21   13   14 2
    22   13   15 am
    23   15   16 1
    24   15   34 1
    25   16   17 1
    26   16   35 1
    27   17   25 1
    28   17   18 2
    29   18   23 ar
    30   18   19 ar
    31   19   20 ar
    32   19   36 1
    33   20   21 ar
    34   20   27 1
    35   21   22 ar
    36   21   37 1
    37   22   23 ar
    38   22   38 1
    39   23   24 2
    40   24   25 am
    41   24   39 1
    42   25   26 2
@<TRIPOS>MOLECULE
ZINC39684201
   74    77     0     0     0
SMALL
USER_CHARGES

@<TRIPOS>ATOM
      1 C1          4.0011    1.9024    1.2615 C.3       1 <0>        -0.1552
      2 C2          4.1173    0.3805    1.1562 C.3       1 <0>        -0.1249
      3 C3          2.8571   -0.2683    1.7324 C.3       1 <0>        -0.1200
      4 C4          2.9733   -1.7903    1.6270 C.3       1 <0>        -0.1069
      5 C5          1.7131   -2.4390    2.2032 C.3       1 <0>        -0.1028
      6 H1          1.5553   -2.0847    3.2218 H         1 <0>         0.0913
      7 C6          0.5065   -2.0645    1.3403 C.3       1 <0>        -0.1377
      8 C7          1.8786   -3.9369    2.2124 C.2       1 <0>         0.5522
      9 O1          1.6076   -4.5830    1.2224 O.2       1 <0>        -0.5319
     10 N1          2.3276   -4.5585    3.3207 N.am      1 <0>        -0.6196
     11 C8          2.5990   -3.9620    4.6499 C.3       1 <0>         0.1147
     12 C9          2.1013   -5.0190    5.6611 C.3       1 <0>        -0.1158
     13 H2          2.7634   -5.0579    6.5261 H         1 <0>         0.1178
     14 C10         2.1465   -6.3498    4.8918 C.3       1 <0>        -0.0727
     15 C11         2.6556   -5.9947    3.4874 C.3       1 <0>         0.1046
     16 C12         0.7493   -6.9561    4.8022 C.3       1 <0>        -0.1462
     17 C13         0.8289   -8.3058    4.0831 C.3       1 <0>        -0.0092
     18 N2          1.7271   -9.2027    4.8204 N.4       1 <0>        -0.5043
     19 C14         3.0896   -8.6567    4.8223 C.3       1 <0>        -0.0099
     20 C15         3.1056   -7.3217    5.5723 C.3       1 <0>        -0.1336
     21 C16         0.6917   -4.7081    6.0941 C.2       1 <0>         0.5143
     22 O2         -0.0399   -4.0716    5.3658 O.2       1 <0>        -0.5155
     23 N3          0.2442   -5.1374    7.2907 N.am      1 <0>        -0.7306
     24 C17        -1.1261   -4.8352    7.7116 C.3       1 <0>         0.1212
     25 C18        -1.3773   -5.4323    9.0977 C.3       1 <0>        -0.0467
     26 C19        -2.7868   -5.1214    9.5307 C.2       1 <0>        -0.1855
     27 C20        -3.9900   -5.8874    9.1966 C.ar      1 <0>        -0.0961
     28 C21        -4.2291   -7.0408    8.4475 C.ar      1 <0>        -0.0836
     29 C22        -5.5040   -7.5167    8.3230 C.ar      1 <0>        -0.1363
     30 C23        -6.5638   -6.8622    8.9351 C.ar      1 <0>        -0.1026
     31 C24        -6.3504   -5.7222    9.6791 C.ar      1 <0>        -0.0881
     32 C25        -5.0609   -5.2204    9.8195 C.ar      1 <0>         0.0971
     33 N4         -4.5334   -4.1328   10.4790 N.pl3     1 <0>        -0.5903
     34 C26        -3.1773   -4.0934   10.3006 C.2       1 <0>         0.0699
     35 C27        -7.5104   -5.0213   10.3380 C.3       1 <0>        -0.1168
     36 H3          3.8920    2.1869    2.3081 H         1 <0>         0.0538
     37 H4          4.8988    2.3646    0.8511 H         1 <0>         0.0559
     38 H5          3.1296    2.2400    0.7005 H         1 <0>         0.0553
     39 H6          4.2263    0.0960    0.1096 H         1 <0>         0.0625
     40 H7          4.9887    0.0429    1.7172 H         1 <0>         0.0601
     41 H8          2.7480    0.0162    2.7789 H         1 <0>         0.0634
     42 H9          1.9857    0.0693    1.1714 H         1 <0>         0.0694
     43 H10         3.0823   -2.0747    0.5805 H         1 <0>         0.0724
     44 H11         3.8447   -2.1278    2.1880 H         1 <0>         0.0631
     45 H12        -0.3736   -2.6020    1.6933 H         1 <0>         0.0574
     46 H13         0.3290   -0.9913    1.4101 H         1 <0>         0.0696
     47 H14         0.7044   -2.3333    0.3026 H         1 <0>         0.0673
     48 H15         3.6674   -3.7876    4.7772 H         1 <0>         0.0890
     49 H16         2.0443   -3.0313    4.7691 H         1 <0>         0.0991
     50 H17         2.1411   -6.5922    2.7348 H         1 <0>         0.0870
     51 H18         3.7329   -6.1486    3.4254 H         1 <0>         0.0830
     52 H19         0.3507   -7.1016    5.8062 H         1 <0>         0.0962
     53 H20         0.0964   -6.2847    4.2445 H         1 <0>         0.1217
     54 H21        -0.1655   -8.7492    4.0321 H         1 <0>         0.1384
     55 H22         1.2123   -8.1573    3.0736 H         1 <0>         0.1342
     56 H23         1.4019   -9.2951    5.7711 H         1 <0>         0.4275
     57 H24         3.7614   -9.3587    5.3162 H         1 <0>         0.1400
     58 H25         3.4194   -8.5001    3.7953 H         1 <0>         0.1325
     59 H26         4.1140   -6.9081    5.5576 H         1 <0>         0.1217
     60 H27         2.7917   -7.4802    6.6041 H         1 <0>         0.0976
     61 H28         0.8294   -5.6464    7.8732 H         1 <0>         0.3985
     62 H29        -1.2642   -3.7547    7.7510 H         1 <0>         0.0721
     63 H30        -1.8287   -5.2654    6.9979 H         1 <0>         0.0709
     64 H31        -1.2392   -6.5128    9.0583 H         1 <0>         0.0725
     65 H32        -0.6747   -5.0020    9.8114 H         1 <0>         0.0766
     66 H33        -3.4094   -7.5549    7.9677 H         1 <0>         0.1136
     67 H34        -5.6885   -8.4091    7.7433 H         1 <0>         0.1219
     68 H35        -7.5659   -7.2501    8.8270 H         1 <0>         0.1272
     69 H36        -2.5189   -3.3445   10.7153 H         1 <0>         0.1707
     70 H37        -5.0462   -3.4923   10.9964 H         1 <0>         0.4188
     71 H38        -7.6587   -5.4264   11.3389 H         1 <0>         0.0720
     72 H39        -7.2991   -3.9541   10.4056 H         1 <0>         0.0586
     73 H40        -8.4124   -5.1763    9.7459 H         1 <0>         0.0738
     74 H41         1.7305  -10.1102    4.3793 H         1 <0>         0.4341
@<TRIPOS>BOND
     1    1    2 1
     2    1   36 1
     3    1   37 1
     4    1   38 1
     5    2    3 1
     6    2   39 1
     7    2   40 1
     8    3    4 1
     9    3   41 1
    10    3   42 1
    11    4    5 1
    12    4   43 1
    13    4   44 1
    14    5    6 1
    15    5    7 1
    16    5    8 1
    17    7   45 1
    18    7   46 1
    19    7   47 1
    20    8    9 2
    21    8   10 am
    22   10   15 1
    23   10   11 1
    24   11   12 1
    25   11   48 1
    26   11   49 1
    27   12   13 1
    28   12   14 1
    29   12   21 1
    30   14   20 1
    31   14   15 1
    32   14   16 1
    33   15   50 1
    34   15   51 1
    35   16   17 1
    36   16   52 1
    37   16   53 1
    38   17   18 1
    39   17   54 1
    40   17   55 1
    41   18   19 1
    42   18   56 1
    43   18   74 1
    44   19   20 1
    45   19   57 1
    46   19   58 1
    47   20   59 1
    48   20   60 1
    49   21   22 2
    50   21   23 am
    51   23   24 1
    52   23   61 1
    53   24   25 1
    54   24   62 1
    55   24   63 1
    56   25   64 1
    57   25   65 1
    58   25   26 1
    59   26   27 1
    60   26   34 2
    61   27   28 ar
    62   27   32 ar
    63   28   29 ar
    64   28   66 1
    65   29   30 ar
    66   29   67 1
    67   30   31 ar
    68   30   68 1
    69   31   32 ar
    70   31   35 1
    71   32   33 1
    72   33   70 1
    73   33   34 1
    74   34   69 1
    75   35   71 1
    76   35   72 1
    77   35   73 1
@<TRIPOS>MOLECULE
ZINC62595571
   37    37     0     0     0
SMALL
USER_CHARGES

@<TRIPOS>ATOM
      1 C1         -0.0187    1.5258    0.0104 C.3       1 <0>        -0.1855
      2 C2          0.0021   -0.0041    0.0020 C.3       1 <0>        -0.0248
      3 N1          0.7126   -0.4907    1.1921 N.4       1 <0>        -0.4972
      4 C3          0.7325   -1.9595    1.1840 C.3       1 <0>         0.0084
      5 H1         -0.2871   -2.3363    1.1022 H         1 <0>         0.1734
      6 C4          1.3614   -2.4682    2.4827 C.3       1 <0>        -0.1455
      7 C5          0.4715   -2.0820    3.6658 C.3       1 <0>         0.0487
      8 O1          1.0589   -2.5571    4.8788 O.3       1 <0>        -0.2989
      9 C6          0.3893   -2.2956    6.0325 C.ar      1 <0>         0.1884
     10 C7          0.6432   -1.1252    6.7337 C.ar      1 <0>        -0.1149
     11 C8         -0.0395   -0.8616    7.9065 C.ar      1 <0>         0.0010
     12 C9         -0.9743   -1.7630    8.3812 C.ar      1 <0>        -0.0349
     13 C10        -1.2292   -2.9298    7.6847 C.ar      1 <0>         0.0017
     14 C11        -0.5536   -3.1958    6.5084 C.ar      1 <0>        -0.1130
     15 Br1        -0.9087   -4.7882    5.5524 Br        1 <0>         0.0202
     16 N2         -1.7030   -1.4784    9.6378 N.pl3     1 <0>         0.0261
     17 O2         -1.4806   -0.4587   10.2479 O.2       1 <0>        -0.1306
     18 O3         -2.5206   -2.2658   10.0540 O.3       1 <0>        -0.1297
     19 Br2         1.9224    0.1076    6.0858 Br        1 <0>         0.0136
     20 C12         1.5430   -2.4445    0.0098 C.2       1 <0>         0.5183
     21 O4          2.0538   -1.6452   -0.7460 O.2       1 <0>        -0.5193
     22 N3          1.7003   -3.7664   -0.2006 N.am      1 <0>        -0.8194
     23 H2          1.0039    1.9031    0.0027 H         1 <0>         0.0834
     24 H3         -0.5459    1.8868   -0.8726 H         1 <0>         0.1103
     25 H4         -0.5289    1.8773    0.9072 H         1 <0>         0.0791
     26 H5         -1.0205   -0.3814    0.0098 H         1 <0>         0.1304
     27 H6          0.5123   -0.3556   -0.8948 H         1 <0>         0.1506
     28 H7          1.6592   -0.1414    1.1850 H         1 <0>         0.4357
     29 H8          1.4575   -3.5531    2.4393 H         1 <0>         0.1346
     30 H9          2.3474   -2.0209    2.6085 H         1 <0>         0.1165
     31 H10         0.3754   -0.9971    3.7093 H         1 <0>         0.0587
     32 H11        -0.5145   -2.5293    3.5401 H         1 <0>         0.0848
     33 H12         0.1577    0.0490    8.4525 H         1 <0>         0.1797
     34 H13        -1.9599   -3.6321    8.0579 H         1 <0>         0.1802
     35 H14         1.2918   -4.4057    0.4039 H         1 <0>         0.4140
     36 H15         2.2220   -4.0785   -0.9564 H         1 <0>         0.4276
     37 H16         0.2403   -0.1653    2.0223 H         1 <0>         0.4283
@<TRIPOS>BOND
     1    1    2 1
     2    1   23 1
     3    1   24 1
     4    1   25 1
     5    2    3 1
     6    2   26 1
     7    2   27 1
     8    3    4 1
     9    3   28 1
    10    3   37 1
    11    4    5 1
    12    4    6 1
    13    4   20 1
    14    6    7 1
    15    6   29 1
    16    6   30 1
    17    7    8 1
    18    7   31 1
    19    7   32 1
    20    8    9 1
    21    9   14 ar
    22    9   10 ar
    23   10   11 ar
    24   10   19 1
    25   11   12 ar
    26   11   33 1
    27   12   13 ar
    28   12   16 1
    29   13   14 ar
    30   13   34 1
    31   14   15 1
    32   16   17 2
    33   16   18 1
    34   20   21 2
    35   20   22 am
    36   22   35 1
    37   22   36 1
@<TRIPOS>MOLECULE
ZINC05223669
   31    32     0     0     0
SMALL
USER_CHARGES
2-(4-bromophenyl)amino-5-(hydroxymethyl)tetrahydrofuran-3,4-diol
@<TRIPOS>ATOM
      1 C1         -1.2508    3.0367    0.0302 C.ar      1 <0>        -0.1898
      2 C2         -2.4577    3.7082    0.0342 C.ar      1 <0>        -0.0412
      3 C3         -3.6456    2.9989    0.0360 C.ar      1 <0>        -0.1444
      4 C4         -3.6284    1.6154    0.0280 C.ar      1 <0>        -0.0418
      5 C5         -2.4246    0.9385    0.0186 C.ar      1 <0>        -0.1839
      6 C6         -1.2305    1.6479    0.0168 C.ar      1 <0>         0.2308
      7 N1         -0.0111    0.9658    0.0074 N.pl3     1 <0>        -0.7345
      8 C7          1.2475    1.7155   -0.0006 C.3       1 <0>         0.2585
      9 H1          1.0944    2.7170    0.4015 H         1 <0>         0.1311
     10 C8          2.3245    0.9671    0.8157 C.3       1 <0>         0.0393
     11 H2          2.9896    1.6751    1.3101 H         1 <0>         0.0948
     12 C9          3.0962    0.1479   -0.2429 C.3       1 <0>         0.0828
     13 H3          3.0120   -0.9190   -0.0360 H         1 <0>         0.0911
     14 C10         2.3942    0.4983   -1.5736 C.3       1 <0>         0.0865
     15 H4          1.6336   -0.2462   -1.8089 H         1 <0>         0.0904
     16 O1          1.7825    1.7856   -1.3403 O.3       1 <0>        -0.3538
     17 C11         3.4173    0.5897   -2.7075 C.3       1 <0>         0.0910
     18 O2          2.7374    0.7988   -3.9469 O.3       1 <0>        -0.5711
     19 O3          4.4690    0.5429   -0.2786 O.3       1 <0>        -0.5479
     20 O4          1.7140    0.1017    1.7752 O.3       1 <0>        -0.5482
     21 Br1        -5.2959    3.9220    0.0488 Br        1 <0>        -0.0581
     22 H5         -0.3239    3.5909    0.0333 H         1 <0>         0.1290
     23 H6         -2.4741    4.7881    0.0409 H         1 <0>         0.1323
     24 H7         -4.5572    1.0643    0.0294 H         1 <0>         0.1328
     25 H8         -2.4118   -0.1414    0.0124 H         1 <0>         0.1301
     26 H9          0.0021   -0.0041    0.0020 H         1 <0>         0.4051
     27 H10         4.0945    1.4229   -2.5196 H         1 <0>         0.0655
     28 H11         3.9877   -0.3378   -2.7580 H         1 <0>         0.0634
     29 H12         3.3254    0.8666   -4.7115 H         1 <0>         0.3837
     30 H13         4.9414    0.3993    0.5528 H         1 <0>         0.3873
     31 H14         1.1687    0.5611    2.4283 H         1 <0>         0.3891
@<TRIPOS>BOND
     1    1    6 ar
     2    1    2 ar
     3    1   22 1
     4    2    3 ar
     5    2   23 1
     6    3    4 ar
     7    3   21 1
     8    4    5 ar
     9    4   24 1
    10    5    6 ar
    11    5   25 1
    12    6    7 1
    13    7    8 1
    14    7   26 1
    15    8    9 1
    16    8   16 1
    17    8   10 1
    18   10   11 1
    19   10   12 1
    20   10   20 1
    21   12   13 1
    22   12   14 1
    23   12   19 1
    24   14   15 1
    25   14   16 1
    26   14   17 1
    27   17   18 1
    28   17   27 1
    29   17   28 1
    30   18   29 1
    31   19   30 1
    32   20   31 1
@<TRIPOS>MOLECULE
ZINC35339799
   40    41     0     0     0
SMALL
USER_CHARGES

@<TRIPOS>ATOM
      1 C1         -0.0184    1.5028    0.0103 C.3       1 <0>        -0.1198
      2 C2          0.0021   -0.0041    0.0020 C.ar      1 <0>        -0.0743
      3 C3          0.0057   -0.6887   -1.1989 C.ar      1 <0>        -0.1233
      4 C4          0.0245   -2.0709   -1.2065 C.ar      1 <0>        -0.0952
      5 C5          0.0400   -2.7685   -0.0132 C.ar      1 <0>        -0.1192
      6 C6          0.0373   -2.0839    1.1877 C.ar      1 <0>        -0.0950
      7 C7          0.0229   -0.7016    1.1953 C.ar      1 <0>        -0.1230
      8 C8          0.0595   -4.2753   -0.0215 C.3       1 <0>         0.1676
      9 N1          1.4468   -4.7457   -0.0317 N.pl3     1 <0>        -0.7389
     10 C9          1.7204   -6.1189   -0.0407 C.ar      1 <0>         0.2060
     11 C10         0.6797   -7.0352   -0.0457 C.ar      1 <0>        -0.1810
     12 C11         0.9522   -8.3908   -0.0551 C.ar      1 <0>        -0.0178
     13 C12         2.2607   -8.8369   -0.0594 C.ar      1 <0>        -0.6840
     14 C13         3.3046   -7.9302   -0.0545 C.ar      1 <0>        -0.0639
     15 C14         3.0405   -6.5690   -0.0505 C.ar      1 <0>         0.1326
     16 N2          4.0960   -5.6490   -0.0509 N.pl3     1 <0>        -0.8832
     17 S1          2.5992  -10.5661   -0.0708 S.o2      1 <0>         2.6999
     18 O1          3.9000  -10.7289    0.4775 O.2       1 <0>        -0.9619
     19 O2          1.4557  -11.2073    0.4774 O.2       1 <0>        -0.9631
     20 N3          2.6914  -11.0366   -1.6558 N.pl3     1 <0>        -1.1224
     21 C15         3.7620  -10.5202   -2.5122 C.3       1 <0>         0.0842
     22 H1          1.0042    1.8801    0.0026 H         1 <0>         0.0731
     23 H2         -0.5455    1.8639   -0.8728 H         1 <0>         0.0687
     24 H3         -0.5286    1.8543    0.9071 H         1 <0>         0.0687
     25 H4         -0.0064   -0.1436   -2.1312 H         1 <0>         0.1247
     26 H5          0.0266   -2.6057   -2.1448 H         1 <0>         0.1237
     27 H6          0.0491   -2.6289    2.1200 H         1 <0>         0.1241
     28 H7          0.0245   -0.1667    2.1335 H         1 <0>         0.1249
     29 H8         -0.4447   -4.6501    0.8693 H         1 <0>         0.0717
     30 H9         -0.4546   -4.6404   -0.9106 H         1 <0>         0.0715
     31 H10         2.1759   -4.1059   -0.0323 H         1 <0>         0.3975
     32 H11        -0.3437   -6.6901   -0.0420 H         1 <0>         0.1312
     33 H12         0.1404   -9.1031   -0.0586 H         1 <0>         0.1369
     34 H13         4.3256   -8.2822   -0.0576 H         1 <0>         0.1371
     35 H14         3.9097   -4.6970   -0.0444 H         1 <0>         0.3918
     36 H15         5.0136   -5.9635   -0.0577 H         1 <0>         0.4024
     37 H16         2.0365  -11.6541   -2.0173 H         1 <0>         0.4184
     38 H17         4.7287  -10.8044   -2.0965 H         1 <0>         0.0676
     39 H18         3.6599  -10.9384   -3.5135 H         1 <0>         0.0819
     40 H19         3.6939   -9.4335   -2.5636 H         1 <0>         0.0600
@<TRIPOS>BOND
     1    1    2 1
     2    1   22 1
     3    1   23 1
     4    1   24 1
     5    2    7 ar
     6    2    3 ar
     7    3    4 ar
     8    3   25 1
     9    4    5 ar
    10    4   26 1
    11    5    6 ar
    12    5    8 1
    13    6    7 ar
    14    6   27 1
    15    7   28 1
    16    8    9 1
    17    8   29 1
    18    8   30 1
    19    9   10 1
    20    9   31 1
    21   10   15 ar
    22   10   11 ar
    23   11   12 ar
    24   11   32 1
    25   12   13 ar
    26   12   33 1
    27   13   14 ar
    28   13   17 1
    29   14   15 ar
    30   14   34 1
    31   15   16 1
    32   16   35 1
    33   16   36 1
    34   17   18 2
    35   17   19 2
    36   17   20 1
    37   20   21 1
    38   20   37 1
    39   21   38 1
    40   21   39 1
    41   21   40 1
@<TRIPOS>MOLECULE
ZINC19816274
   35    36     0     0     0
SMALL
USER_CHARGES

@<TRIPOS>ATOM
      1 C1         -0.0187    1.5258    0.0104 C.3       1 <0>        -0.1533
      2 C2          0.0021   -0.0041    0.0020 C.3       1 <0>         0.0556
      3 O1          0.6709   -0.4649   -1.1737 O.3       1 <0>        -0.3137
      4 C3          0.7768   -1.8100   -1.3361 C.ar      1 <0>         0.1384
      5 C4          0.2426   -2.6689   -0.3863 C.ar      1 <0>        -0.2080
      6 C5          0.3510   -4.0356   -0.5539 C.ar      1 <0>        -0.0788
      7 C6          0.9913   -4.5482   -1.6673 C.ar      1 <0>        -0.1561
      8 C7          1.5248   -3.6946   -2.6149 C.ar      1 <0>        -0.0678
      9 C8          1.4139   -2.3267   -2.4547 C.ar      1 <0>        -0.1106
     10 C9          1.9902   -1.3968   -3.4912 C.3       1 <0>         0.1052
     11 C10         3.4685   -1.5559   -3.4923 C.2       1 <0>        -0.1647
     12 C11         4.1817   -2.3074   -4.3555 C.2       1 <0>         0.2058
     13 S1          3.3984   -3.2030   -5.6530 S.3       1 <0>         0.1116
     14 C12         1.8188   -2.4372   -5.7861 C.2       1 <0>         0.2057
     15 C13         1.3234   -1.6741   -4.7910 C.2       1 <0>        -0.1650
     16 C14         0.0396   -1.0769   -5.0052 C.1       1 <0>         0.2616
     17 N1         -0.9788   -0.6032   -5.1752 N.1       1 <0>        -0.4300
     18 N2          1.0755   -2.6205   -6.9280 N.pl3     1 <0>        -0.8287
     19 N3          5.5481   -2.3752   -4.2198 N.pl3     1 <0>        -0.8288
     20 C15         4.2009   -0.8468   -2.4866 C.1       1 <0>         0.2617
     21 N4          4.7819   -0.2844   -1.6887 N.1       1 <0>        -0.4299
     22 H1          1.0039    1.9031    0.0027 H         1 <0>         0.0664
     23 H2         -0.5459    1.8868   -0.8726 H         1 <0>         0.0664
     24 H3         -0.5289    1.8773    0.9072 H         1 <0>         0.0790
     25 H4          0.5293   -0.3651    0.8851 H         1 <0>         0.0619
     26 H5         -1.0205   -0.3814    0.0098 H         1 <0>         0.0620
     27 H6         -0.2573   -2.2690    0.4836 H         1 <0>         0.1267
     28 H7         -0.0643   -4.7045    0.1853 H         1 <0>         0.1240
     29 H8          1.0751   -5.6171   -1.7966 H         1 <0>         0.1248
     30 H9          2.0247   -4.0973   -3.4834 H         1 <0>         0.1283
     31 H10         1.7581   -0.3730   -3.1981 H         1 <0>         0.1068
     32 H11         1.4227   -3.1673   -7.6501 H         1 <0>         0.4105
     33 H12         0.2040   -2.2030   -7.0116 H         1 <0>         0.4112
     34 H13         5.9897   -1.8854   -3.5085 H         1 <0>         0.4111
     35 H14         6.0705   -2.9128   -4.8353 H         1 <0>         0.4104
@<TRIPOS>BOND
     1    1    2 1
     2    1   22 1
     3    1   23 1
     4    1   24 1
     5    2    3 1
     6    2   25 1
     7    2   26 1
     8    3    4 1
     9    4    9 ar
    10    4    5 ar
    11    5    6 ar
    12    5   27 1
    13    6    7 ar
    14    6   28 1
    15    7    8 ar
    16    7   29 1
    17    8    9 ar
    18    8   30 1
    19    9   10 1
    20   10   15 1
    21   10   11 1
    22   10   31 1
    23   11   12 2
    24   11   20 1
    25   12   13 1
    26   12   19 1
    27   13   14 1
    28   14   15 2
    29   14   18 1
    30   15   16 1
    31   16   17 3
    32   18   32 1
    33   18   33 1
    34   19   34 1
    35   19   35 1
    36   20   21 3
@<TRIPOS>MOLECULE
ZINC45626058
   30    30     0     0     0
SMALL
USER_CHARGES

@<TRIPOS>ATOM
      1 C1         -0.0187    1.5258    0.0104 C.3       1 <0>        -0.1450
      2 C2          0.0021   -0.0041    0.0020 C.3       1 <0>        -0.1117
      3 H1         -1.0205   -0.3814    0.0098 H         1 <0>         0.1120
      4 C3          0.7182   -0.4975   -1.2568 C.3       1 <0>         0.0850
      5 O1         -0.0359   -0.1233   -2.4115 O.3       1 <0>        -0.3492
      6 C4          0.4612   -0.4848   -3.6102 C.2       1 <0>         0.4964
      7 O2          1.5062   -1.1009   -3.6736 O.2       1 <0>        -0.4643
      8 C5         -0.2643   -0.1323   -4.8473 C.ar      1 <0>        -0.0495
      9 C6         -1.4625    0.5806   -4.7777 C.ar      1 <0>        -0.1385
     10 C7         -2.1374    0.9076   -5.9430 C.ar      1 <0>         0.2189
     11 C8         -1.6214    0.5257   -7.1765 C.ar      1 <0>        -0.1599
     12 C9         -0.4356   -0.1799   -7.2466 C.ar      1 <0>        -0.0506
     13 C10         0.2489   -0.5059   -6.0919 C.ar      1 <0>        -0.0993
     14 Br1         1.8754   -1.4649   -6.1952 Br        1 <0>        -0.0152
     15 N1         -3.3373    1.6212   -5.8784 N.pl3     1 <0>        -0.8707
     16 C11         0.7309   -0.5033    1.2229 C.2       1 <0>         0.5256
     17 O3          1.7253   -1.1865    1.0985 O.2       1 <0>        -0.5367
     18 N2          0.2778   -0.1906    2.4531 N.am      1 <0>        -0.8510
     19 H2          1.0039    1.9031    0.0027 H         1 <0>         0.0635
     20 H3         -0.5459    1.8868   -0.8726 H         1 <0>         0.0774
     21 H4         -0.5289    1.8773    0.9072 H         1 <0>         0.0645
     22 H5          1.7103   -0.0491   -1.3098 H         1 <0>         0.0792
     23 H6          0.8116   -1.5829   -1.2198 H         1 <0>         0.0807
     24 H7         -1.8623    0.8759   -3.8189 H         1 <0>         0.1438
     25 H8         -2.1498    0.7813   -8.0831 H         1 <0>         0.1367
     26 H9         -0.0403   -0.4739   -8.2077 H         1 <0>         0.1428
     27 H10        -3.6976    1.8874   -5.0180 H         1 <0>         0.4029
     28 H11        -3.8099    1.8502   -6.6940 H         1 <0>         0.4034
     29 H12        -0.5174    0.3558    2.5526 H         1 <0>         0.4031
     30 H13         0.7470   -0.5119    3.2389 H         1 <0>         0.4057
@<TRIPOS>BOND
     1    1    2 1
     2    1   19 1
     3    1   20 1
     4    1   21 1
     5    2    3 1
     6    2    4 1
     7    2   16 1
     8    4    5 1
     9    4   22 1
    10    4   23 1
    11    5    6 1
    12    6    7 2
    13    6    8 1
    14    8   13 ar
    15    8    9 ar
    16    9   10 ar
    17    9   24 1
    18   10   11 ar
    19   10   15 1
    20   11   12 ar
    21   11   25 1
    22   12   13 ar
    23   12   26 1
    24   13   14 1
    25   15   27 1
    26   15   28 1
    27   16   17 2
    28   16   18 am
    29   18   29 1
    30   18   30 1
@<TRIPOS>MOLECULE
ZINC53112685
   42    43     0     0     0
SMALL
USER_CHARGES

@<TRIPOS>ATOM
      1 C1         -4.0919   -1.2211   -6.2759 C.ar      1 <0>        -0.0581
      2 C2         -3.9289   -1.4626   -7.6259 C.ar      1 <0>        -0.1971
      3 C3         -2.6581   -1.4348   -8.1863 C.ar      1 <0>         0.2259
      4 C4         -1.5553   -1.1640   -7.3862 C.ar      1 <0>        -0.1963
      5 C5         -1.7255   -0.9235   -6.0370 C.ar      1 <0>        -0.0490
      6 C6         -2.9919   -0.9520   -5.4823 C.ar      1 <0>        -0.1576
      7 C7         -3.1737   -0.6886   -4.0097 C.3       1 <0>        -0.5659
      8 S1         -3.0693   -2.2534   -3.0981 S.o2      1 <0>         2.6017
      9 O1         -4.2796   -2.9844   -3.2403 O.2       1 <0>        -0.9540
     10 O2         -1.8145   -2.8761   -3.3369 O.2       1 <0>        -0.9574
     11 N1         -3.0261   -1.8141   -1.5020 N.pl3     1 <0>        -1.0996
     12 C8         -4.2357   -1.3083   -0.8484 C.3       1 <0>         0.1918
     13 C9         -3.8841   -0.7971    0.5501 C.3       1 <0>        -0.1117
     14 C10        -3.2972   -1.9416    1.3788 C.3       1 <0>        -0.1220
     15 C11        -4.3253   -3.0691    1.4914 C.3       1 <0>        -0.1231
     16 C12        -4.6770   -3.5802    0.0929 C.3       1 <0>        -0.1125
     17 C13        -5.2639   -2.4357   -0.7358 C.3       1 <0>        -0.1520
     18 C14        -4.8226   -0.1638   -1.6771 C.3       1 <0>         0.0387
     19 O3         -3.8178    0.8277   -1.8987 O.3       1 <0>        -0.5618
     20 N2         -2.4896   -1.6789   -9.5512 N.pl3     1 <0>        -0.8746
     21 H1         -5.0800   -1.2381   -5.8404 H         1 <0>         0.1273
     22 H2         -4.7883   -1.6731   -8.2451 H         1 <0>         0.1261
     23 H3         -0.5660   -1.1420   -7.8187 H         1 <0>         0.1263
     24 H4         -0.8685   -0.7129   -5.4143 H         1 <0>         0.1282
     25 H5         -2.3922   -0.0128   -3.6622 H         1 <0>         0.1447
     26 H6         -4.1495   -0.2335   -3.8397 H         1 <0>         0.1361
     27 H7         -2.1998   -1.8916   -0.9998 H         1 <0>         0.4173
     28 H8         -3.1516    0.0061    0.4698 H         1 <0>         0.0790
     29 H9         -4.7841   -0.4208    1.0364 H         1 <0>         0.0756
     30 H10        -2.3972   -2.3179    0.8925 H         1 <0>         0.0631
     31 H11        -3.0467   -1.5775    2.3751 H         1 <0>         0.0662
     32 H12        -3.9073   -3.8844    2.0818 H         1 <0>         0.0626
     33 H13        -5.2254   -2.6928    1.9777 H         1 <0>         0.0629
     34 H14        -3.7770   -3.9565   -0.3934 H         1 <0>         0.0622
     35 H15        -5.4095   -4.3834    0.1732 H         1 <0>         0.0661
     36 H16        -6.1639   -2.0594   -0.2495 H         1 <0>         0.0736
     37 H17        -5.5144   -2.7999   -1.7321 H         1 <0>         0.1071
     38 H18        -5.1696   -0.5500   -2.6355 H         1 <0>         0.0535
     39 H19        -5.6601    0.2813   -1.1400 H         1 <0>         0.0729
     40 H20        -4.1202    1.5848   -2.4188 H         1 <0>         0.3834
     41 H21        -3.2604   -1.8682  -10.1088 H         1 <0>         0.4002
     42 H22        -1.6018   -1.6592   -9.9414 H         1 <0>         0.4004
@<TRIPOS>BOND
     1    1    6 ar
     2    1    2 ar
     3    1   21 1
     4    2    3 ar
     5    2   22 1
     6    3    4 ar
     7    3   20 1
     8    4    5 ar
     9    4   23 1
    10    5    6 ar
    11    5   24 1
    12    6    7 1
    13    7    8 1
    14    7   25 1
    15    7   26 1
    16    8    9 2
    17    8   10 2
    18    8   11 1
    19   11   12 1
    20   11   27 1
    21   12   17 1
    22   12   13 1
    23   12   18 1
    24   13   14 1
    25   13   28 1
    26   13   29 1
    27   14   15 1
    28   14   30 1
    29   14   31 1
    30   15   16 1
    31   15   32 1
    32   15   33 1
    33   16   17 1
    34   16   34 1
    35   16   35 1
    36   17   36 1
    37   17   37 1
    38   18   19 1
    39   18   38 1
    40   18   39 1
    41   19   40 1
    42   20   41 1
    43   20   42 1
@<TRIPOS>MOLECULE
ZINC04284110
   53    54     0     0     0
SMALL
USER_CHARGES
N-[(5-amino-1,3,3-trimethyl-cyclohexyl)methyl]-2-nitro-4-(trifluoromethylsulfonyl)aniline
@<TRIPOS>ATOM
      1 C1         -5.3263    2.0285    9.5721 C.3       1 <0>        -0.1563
      2 C2         -6.0018    2.0136    8.1982 C.3       1 <0>        -0.0632
      3 C3         -6.5687    3.3821    7.8604 C.3       1 <0>        -0.1354
      4 C4         -5.5282    4.3789    7.3866 C.3       1 <0>         0.0423
      5 H1         -6.0804    5.2500    6.9661 H         1 <0>         0.1413
      6 C5         -4.6612    3.8245    6.2723 C.3       1 <0>        -0.1435
      7 C6         -4.0584    2.4642    6.5794 C.3       1 <0>        -0.0654
      8 C7         -5.0664    1.4760    7.1329 C.3       1 <0>        -0.1110
      9 C8         -2.8499    2.6021    7.5095 C.3       1 <0>        -0.1646
     10 C9         -3.5283    1.8850    5.2438 C.3       1 <0>         0.1052
     11 N1         -2.5347    2.7992    4.6752 N.pl3     1 <0>        -0.7119
     12 C10        -1.9121    2.4885    3.4642 C.ar      1 <0>         0.3313
     13 C11        -2.1410    1.2590    2.8590 C.ar      1 <0>        -0.2105
     14 C12        -1.5236    0.9549    1.6619 C.ar      1 <0>         0.0802
     15 C13        -0.6780    1.8726    1.0654 C.ar      1 <0>        -0.7155
     16 C14        -0.4439    3.0949    1.6676 C.ar      1 <0>         0.1077
     17 C15        -1.0624    3.4077    2.8624 C.ar      1 <0>        -0.1383
     18 N2         -0.8156    4.7186    3.5035 N.pl3     1 <0>         0.0519
     19 O1         -0.1628    5.5673    2.9228 O.2       1 <0>        -0.1220
     20 O2         -1.2653    4.9488    4.6118 O.3       1 <0>        -0.2125
     21 S1          0.1083    1.4801   -0.4618 S.o2      1 <0>         2.4996
     22 O3          0.1832    0.0612   -0.4770 O.2       1 <0>        -0.8472
     23 O4          1.2907    2.2681   -0.4738 O.2       1 <0>        -0.8475
     24 C16        -1.0412    2.0588   -1.7402 C.3       1 <0>        -0.0188
     25 F1         -1.2400    3.4365   -1.5995 F         1 <0>        -0.1565
     26 F2         -0.5054    1.7917   -3.0046 F         1 <0>        -0.1513
     27 F3         -2.2648    1.3946   -1.6024 F         1 <0>        -0.1575
     28 H2         -4.1792    5.6959    8.2039 H         1 <0>         0.4385
     29 H3         -5.3080    5.1304    9.2864 H         1 <0>         0.4370
     30 C17        -7.1977    1.0340    8.3008 C.3       1 <0>        -0.1524
     31 H4         -6.0382    2.3703   10.3234 H         1 <0>         0.0706
     32 H5         -4.9891    1.0226    9.8222 H         1 <0>         0.0795
     33 H6         -4.4705    2.7033    9.5490 H         1 <0>         0.0355
     34 H7         -7.0752    3.7867    8.7486 H         1 <0>         0.0918
     35 H8         -7.3368    3.2672    7.0820 H         1 <0>         0.1142
     36 H9         -3.8485    4.5349    6.0627 H         1 <0>         0.0924
     37 H10        -5.2612    3.7491    5.3539 H         1 <0>         0.1163
     38 H11        -5.6709    1.0843    6.2981 H         1 <0>         0.0813
     39 H12        -4.5222    0.6102    7.5452 H         1 <0>         0.0845
     40 H13        -2.1533    3.3306    7.0945 H         1 <0>         0.0727
     41 H14        -3.1836    2.9372    8.4916 H         1 <0>         0.0497
     42 H15        -2.3525    1.6369    7.6045 H         1 <0>         0.0870
     43 H16        -4.3562    1.7678    4.5446 H         1 <0>         0.0840
     44 H17        -3.0667    0.9146    5.4264 H         1 <0>         0.0867
     45 H18        -2.3092    3.6203    5.1399 H         1 <0>         0.4204
     46 H19        -2.8009    0.5419    3.3244 H         1 <0>         0.1612
     47 H20        -1.7014   -0.0005    1.1907 H         1 <0>         0.1697
     48 H21         0.2202    3.8076    1.2013 H         1 <0>         0.1795
     49 H22        -7.7265    1.0052    7.3481 H         1 <0>         0.0635
     50 H23        -6.8306    0.0367    8.5429 H         1 <0>         0.0671
     51 H24        -7.8773    1.3710    9.0835 H         1 <0>         0.0640
     52 N3         -4.7109    4.8791    8.5002 N.4       1 <0>        -0.6516
     53 H25        -4.0583    4.1440    8.7967 H         1 <0>         0.4259
@<TRIPOS>BOND
     1    1    2 1
     2    1   31 1
     3    1   32 1
     4    1   33 1
     5    2    8 1
     6    2    3 1
     7    2   30 1
     8    3    4 1
     9    3   34 1
    10    3   35 1
    11    4    5 1
    12    4    6 1
    13    4   52 1
    14    6    7 1
    15    6   36 1
    16    6   37 1
    17    7    8 1
    18    7    9 1
    19    7   10 1
    20    8   38 1
    21    8   39 1
    22    9   40 1
    23    9   41 1
    24    9   42 1
    25   10   11 1
    26   10   43 1
    27   10   44 1
    28   11   12 1
    29   11   45 1
    30   12   17 ar
    31   12   13 ar
    32   13   14 ar
    33   13   46 1
    34   14   15 ar
    35   14   47 1
    36   15   16 ar
    37   15   21 1
    38   16   17 ar
    39   16   48 1
    40   17   18 1
    41   18   19 2
    42   18   20 1
    43   21   22 2
    44   21   23 2
    45   21   24 1
    46   24   25 1
    47   24   26 1
    48   24   27 1
    49   28   52 1
    50   29   52 1
    51   30   49 1
    52   30   50 1
    53   30   51 1
    54   52   53 1
@<TRIPOS>MOLECULE
ZINC26825276
   51    54     0     0     0
SMALL
USER_CHARGES
5-methylsulfanyl-4-[4-[5-propoxy-1-(2-pyridyl)pyrazol-4-yl]thiazol-2-yl]thiophene-2-carboxamidine
@<TRIPOS>ATOM
      1 C1         -1.0214   -3.0397   -2.0538 C.3       1 <0>        -0.1579
      2 C2         -0.2111   -2.8858   -0.7651 C.3       1 <0>        -0.1127
      3 C3          1.2679   -3.1456   -1.0585 C.3       1 <0>         0.0722
      4 O1          2.0247   -3.0019    0.1451 O.3       1 <0>        -0.2747
      5 C4          3.3686   -3.1638    0.0508 C.2       1 <0>         0.3184
      6 C5          4.3015   -2.1671   -0.1496 C.2       1 <0>        -0.1874
      7 C6          5.5703   -2.7778   -0.1768 C.2       1 <0>         0.0969
      8 N1          5.4133   -4.0640   -0.0093 N.2       1 <0>        -0.2583
      9 N2          4.0482   -4.3397    0.1324 N.pl3     1 <0>        -0.3265
     10 C7          3.4825   -5.6022    0.3302 C.ar      1 <0>         0.3500
     11 C8          4.1489   -6.7339   -0.1239 C.ar      1 <0>        -0.1519
     12 C9          3.5778   -7.9782    0.0788 C.ar      1 <0>        -0.0539
     13 C10         2.3547   -8.0468    0.7317 C.ar      1 <0>        -0.1726
     14 C11         1.7488   -6.8806    1.1561 C.ar      1 <0>         0.1260
     15 N3          2.3199   -5.7091    0.9530 N.ar      1 <0>        -0.4867
     16 C12         4.0201   -0.7169   -0.3020 C.2       1 <0>         0.1505
     17 C13         5.0454    0.1676   -0.4906 C.2       1 <0>        -0.1875
     18 S1          4.1414    1.7062   -0.6033 S.3       1 <0>         0.0559
     19 C14         2.5050    1.0194   -0.3895 C.2       1 <0>         0.1351
     20 N4          2.7772   -0.2708   -0.2502 N.2       1 <0>        -0.4727
     21 C15         1.1995    1.7062   -0.3675 C.2       1 <0>        -0.0535
     22 C16         0.0225    0.9980   -0.1880 C.2       1 <0>         0.0190
     23 C17        -1.1499    1.7048   -0.1854 C.2       1 <0>        -0.3084
     24 S2         -0.5941    3.3817   -0.4263 S.3       1 <0>         0.2607
     25 C18         1.1112    3.0879   -0.5272 C.2       1 <0>        -0.1502
     26 S3          2.4128    4.2500   -0.7719 S.3       1 <0>         0.1012
     27 C19         1.4518    5.7801   -0.8794 C.3       1 <0>        -0.1957
     28 C20        -2.5210    1.2071   -0.0227 C.cat     1 <0>         0.6478
     29 N5         -2.7368   -0.0723    0.1477 N.pl3     1 <0>        -0.7761
     30 N6         -3.5837    2.0891   -0.0495 N.pl3     1 <0>        -0.8270
     31 H1         -2.0847   -2.8529   -1.8428 H         1 <0>         0.0635
     32 H2         -0.8989   -4.0608   -2.4442 H         1 <0>         0.0657
     33 H3         -0.6631   -2.3161   -2.8008 H         1 <0>         0.0601
     34 H4         -0.3336   -1.8647   -0.3747 H         1 <0>         0.0548
     35 H5         -0.5693   -3.6094   -0.0181 H         1 <0>         0.0822
     36 H6          1.3904   -4.1667   -1.4489 H         1 <0>         0.0510
     37 H7          1.6262   -2.4220   -1.8055 H         1 <0>         0.0603
     38 H8          6.5133   -2.2691   -0.3124 H         1 <0>         0.2023
     39 H9          5.0995   -6.6437   -0.6286 H         1 <0>         0.1485
     40 H10         4.0724   -8.8752   -0.2634 H         1 <0>         0.1490
     41 H11         1.8818   -9.0021    0.9055 H         1 <0>         0.1466
     42 H12         0.7973   -6.9288    1.6648 H         1 <0>         0.1676
     43 H13         6.1083   -0.0132   -0.5540 H         1 <0>         0.2061
     44 H14         0.0292   -0.0742   -0.0591 H         1 <0>         0.1615
     45 H15         2.1321    6.6301   -1.0366 H         1 <0>         0.1354
     46 H16         0.8910    5.9273    0.0554 H         1 <0>         0.1027
     47 H17         0.7483    5.7128   -1.7223 H         1 <0>         0.1026
     48 H18        -3.7644   -0.4453    0.2696 H         1 <0>         0.4652
     49 H19        -4.6113    1.7160    0.0724 H         1 <0>         0.4595
     50 H20        -3.4024    3.1646   -0.1928 H         1 <0>         0.4642
     51 H21        -1.8906   -0.7748    0.1690 H         1 <0>         0.4713
@<TRIPOS>BOND
     1    1    2 1
     2    1   31 1
     3    1   32 1
     4    1   33 1
     5    2    3 1
     6    2   34 1
     7    2   35 1
     8    3    4 1
     9    3   36 1
    10    3   37 1
    11    4    5 1
    12    5    9 1
    13    5    6 2
    14    6    7 1
    15    6   16 1
    16    7    8 2
    17    7   38 1
    18    8    9 1
    19    9   10 1
    20   10   15 ar
    21   10   11 ar
    22   11   12 ar
    23   11   39 1
    24   12   13 ar
    25   12   40 1
    26   13   14 ar
    27   13   41 1
    28   14   15 ar
    29   14   42 1
    30   16   20 1
    31   16   17 2
    32   17   18 1
    33   17   43 1
    34   18   19 1
    35   19   20 2
    36   19   21 1
    37   21   25 2
    38   21   22 1
    39   22   23 2
    40   22   44 1
    41   23   24 1
    42   23   28 1
    43   24   25 1
    44   25   26 1
    45   26   27 1
    46   27   45 1
    47   27   46 1
    48   27   47 1
    49   28   29 2
    50   28   30 1
    51   29   48 1
    52   29   51 1
    53   30   49 1
    54   30   50 1
@<TRIPOS>MOLECULE
ZINC04160194
   59    62     0     0     0
SMALL
USER_CHARGES

@<TRIPOS>ATOM
      1 C1         -0.0184    1.5028    0.0103 C.3       1 <0>        -0.1211
      2 C2          0.0021   -0.0041    0.0020 C.ar      1 <0>        -0.0763
      3 C3          0.0057   -0.6888   -1.1991 C.ar      1 <0>        -0.1108
      4 C4          0.0245   -2.0707   -1.2067 C.ar      1 <0>        -0.1080
      5 C5          0.0400   -2.7685   -0.0132 C.ar      1 <0>        -0.1114
      6 C6          0.0373   -2.0840    1.1875 C.ar      1 <0>        -0.0846
      7 C7          0.0229   -0.7015    1.1951 C.ar      1 <0>        -0.1137
      8 C8          0.0538   -2.8445    2.4885 C.3       1 <0>        -0.0028
      9 H1          0.0489   -2.1402    3.3203 H         1 <0>         0.0901
     10 C9         -1.1857   -3.7389    2.5712 C.3       1 <0>        -0.1461
     11 C10        -0.9987   -4.7107    3.7439 C.3       1 <0>         0.3090
     12 C11        -2.2696   -5.5454    3.9151 C.3       1 <0>        -0.1278
     13 C12        -2.1645   -6.3266    5.2335 C.3       1 <0>         0.1476
     14 N1         -2.0172   -5.3427    6.3172 N.pl3     1 <0>        -0.6669
     15 C13        -1.1802   -4.2681    6.1247 C.cat     1 <0>         0.4826
     16 N2         -0.7125   -3.9570    4.9597 N.pl3     1 <0>        -0.6095
     17 S1         -0.7300   -3.2812    7.5133 S.3       1 <0>         0.0484
     18 C14        -1.5930   -4.0619    8.9048 C.3       1 <0>        -0.0975
     19 C15        -1.2893   -3.3055   10.1723 C.2       1 <0>        -0.1794
     20 C16        -2.2482   -2.6757   10.8050 C.2       1 <0>        -0.1140
     21 C17        -3.4334   -7.1535    5.4507 C.3       1 <0>        -0.1605
     22 C18        -0.9426   -7.2467    5.1969 C.3       1 <0>        -0.1710
     23 O1          0.1001   -5.5720    3.4398 O.3       1 <0>        -0.2789
     24 C19         1.2592   -4.9944    3.0255 C.ar      1 <0>         0.0917
     25 C20         1.2980   -3.6937    2.5574 C.ar      1 <0>        -0.1545
     26 C21         2.5010   -3.1453    2.1421 C.ar      1 <0>        -0.0586
     27 C22         3.6637   -3.8887    2.1917 C.ar      1 <0>        -0.1448
     28 C23         3.6322   -5.1933    2.6600 C.ar      1 <0>         0.1255
     29 C24         2.4315   -5.7459    3.0782 C.ar      1 <0>         0.0669
     30 O2          2.3977   -7.0261    3.5388 O.3       1 <0>        -0.4797
     31 O3          4.7757   -5.9278    2.7102 O.3       1 <0>        -0.4840
     32 H2          1.0042    1.8801    0.0026 H         1 <0>         0.0751
     33 H3         -0.5455    1.8639   -0.8728 H         1 <0>         0.0710
     34 H4         -0.5286    1.8543    0.9071 H         1 <0>         0.0680
     35 H5         -0.0064   -0.1437   -2.1314 H         1 <0>         0.1270
     36 H6          0.0266   -2.6056   -2.1449 H         1 <0>         0.1270
     37 H7          0.0540   -3.8484   -0.0191 H         1 <0>         0.1186
     38 H8          0.0246   -0.1666    2.1333 H         1 <0>         0.1224
     39 H9         -2.0710   -3.1256    2.7395 H         1 <0>         0.1078
     40 H10        -1.2972   -4.2996    1.6432 H         1 <0>         0.1193
     41 H11        -3.1382   -4.8877    3.9473 H         1 <0>         0.1160
     42 H12        -2.3649   -6.2426    3.0827 H         1 <0>         0.1349
     43 H13        -2.5007   -5.4496    7.1513 H         1 <0>         0.4349
     44 H14        -2.6673   -4.0464    8.7209 H         1 <0>         0.1128
     45 H15        -1.2569   -5.0937    9.0080 H         1 <0>         0.1205
     46 H16        -0.2813   -3.2826   10.5592 H         1 <0>         0.1336
     47 H17        -3.2562   -2.6986   10.4181 H         1 <0>         0.1076
     48 H18        -2.0305   -2.1336   11.7133 H         1 <0>         0.1222
     49 H19        -3.5554   -7.8551    4.6255 H         1 <0>         0.0980
     50 H20        -3.3519   -7.7049    6.3874 H         1 <0>         0.0798
     51 H21        -4.2967   -6.4896    5.4938 H         1 <0>         0.0752
     52 H22        -0.0415   -6.6488    5.0603 H         1 <0>         0.0862
     53 H23        -0.8743   -7.7976    6.1349 H         1 <0>         0.0716
     54 H24        -1.0414   -7.9492    4.3693 H         1 <0>         0.0916
     55 H25         2.5294   -2.1294    1.7766 H         1 <0>         0.1398
     56 H26         4.5971   -3.4542    1.8655 H         1 <0>         0.1444
     57 H27         2.2381   -7.6873    2.8515 H         1 <0>         0.3954
     58 H28         5.2572   -5.8493    3.5451 H         1 <0>         0.4020
     59 H29        -0.1385   -3.1781    4.8905 H         1 <0>         0.4377
@<TRIPOS>BOND
     1    1    2 1
     2    1   32 1
     3    1   33 1
     4    1   34 1
     5    2    7 ar
     6    2    3 ar
     7    3    4 ar
     8    3   35 1
     9    4    5 ar
    10    4   36 1
    11    5    6 ar
    12    5   37 1
    13    6    7 ar
    14    6    8 1
    15    7   38 1
    16    8    9 1
    17    8   25 1
    18    8   10 1
    19   10   11 1
    20   10   39 1
    21   10   40 1
    22   11   16 1
    23   11   12 1
    24   11   23 1
    25   12   13 1
    26   12   41 1
    27   12   42 1
    28   13   14 1
    29   13   21 1
    30   13   22 1
    31   14   15 1
    32   14   43 1
    33   15   16 2
    34   15   17 1
    35   16   59 1
    36   17   18 1
    37   18   19 1
    38   18   44 1
    39   18   45 1
    40   19   20 2
    41   19   46 1
    42   20   47 1
    43   20   48 1
    44   21   49 1
    45   21   50 1
    46   21   51 1
    47   22   52 1
    48   22   53 1
    49   22   54 1
    50   23   24 1
    51   24   29 ar
    52   24   25 ar
    53   25   26 ar
    54   26   27 ar
    55   26   55 1
    56   27   28 ar
    57   27   56 1
    58   28   29 ar
    59   28   31 1
    60   29   30 1
    61   30   57 1
    62   31   58 1
@<TRIPOS>MOLECULE
ZINC40705055
   52    55     0     0     0
SMALL
USER_CHARGES

@<TRIPOS>ATOM
      1 C1         -2.4405   -0.9864    1.4705 C.3       1 <0>        -0.1244
      2 C2         -1.1593   -1.0604    0.6806 C.ar      1 <0>        -0.0728
      3 C3         -1.1391   -1.6958   -0.5457 C.ar      1 <0>        -0.0908
      4 C4          0.0355   -1.7645   -1.2715 C.ar      1 <0>        -0.0722
      5 C5          1.1952   -1.1970   -0.7722 C.ar      1 <0>        -0.0319
      6 C6          1.1814   -0.5595    0.4539 C.ar      1 <0>        -0.0884
      7 C7          0.0010   -0.4848    1.1825 C.ar      1 <0>         0.0677
      8 N1         -0.0179    0.1633    2.4204 N.pl3     1 <0>        -0.6314
      9 C8         -0.0745   -0.5806    3.5937 C.ar      1 <0>         0.4185
     10 C9         -0.1967    0.0551    4.8312 C.ar      1 <0>         0.1238
     11 C10        -0.2490   -0.7393    5.9778 C.ar      1 <0>         0.4143
     12 N2         -0.1809   -2.0623    5.8490 N.ar      1 <0>        -0.4417
     13 C11        -0.0660   -2.6223    4.6621 C.ar      1 <0>         0.3348
     14 N3         -0.0186   -1.9096    3.5546 N.ar      1 <0>        -0.5066
     15 N4         -0.3699   -0.1572    7.2355 N.pl3     1 <0>        -0.5577
     16 C12        -1.6930    0.1995    7.7534 C.3       1 <0>         0.1741
     17 C13        -2.2651   -0.9675    8.5163 C.ar      1 <0>        -0.1204
     18 C14        -3.0270   -1.9158    7.8596 C.ar      1 <0>        -0.0995
     19 C15        -3.5518   -2.9862    8.5594 C.ar      1 <0>        -0.1236
     20 C16        -3.3144   -3.1085    9.9157 C.ar      1 <0>        -0.1051
     21 C17        -2.5518   -2.1607   10.5722 C.ar      1 <0>        -0.1224
     22 C18        -2.0234   -1.0926    9.8716 C.ar      1 <0>        -0.0830
     23 C19         0.7659    0.0862    8.0015 C.ar      1 <0>         0.3913
     24 C20         2.0266   -0.1025    7.4443 C.ar      1 <0>        -0.2218
     25 C21         3.1471    0.1437    8.2169 C.ar      1 <0>        -0.0315
     26 C22         2.9685    0.5719    9.5259 C.ar      1 <0>        -0.2029
     27 C23         1.6880    0.7381   10.0142 C.ar      1 <0>         0.1509
     28 N5          0.6371    0.5005    9.2524 N.ar      1 <0>        -0.5143
     29 N6         -0.2645    1.4543    4.9197 N.pl3     1 <0>        -0.8283
     30 Cl1         2.6682   -1.2867   -1.6866 Cl        1 <0>        -0.0333
     31 H1         -2.9862   -0.0843    1.1940 H         1 <0>         0.0921
     32 H2         -3.0523   -1.8620    1.2534 H         1 <0>         0.0878
     33 H3         -2.2097   -0.9594    2.5354 H         1 <0>         0.0517
     34 H4         -2.0421   -2.1399   -0.9379 H         1 <0>         0.1526
     35 H5          0.0485   -2.2622   -2.2299 H         1 <0>         0.1524
     36 H6          2.0863   -0.1171    0.8435 H         1 <0>         0.1478
     37 H7          0.0086    1.1321    2.4612 H         1 <0>         0.4392
     38 H8         -0.0130   -3.6989    4.5942 H         1 <0>         0.2477
     39 H9         -1.6036    1.0591    8.4177 H         1 <0>         0.1125
     40 H10        -2.3531    0.4493    6.9228 H         1 <0>         0.0825
     41 H11        -3.2124   -1.8202    6.8000 H         1 <0>         0.1066
     42 H12        -4.1476   -3.7268    8.0465 H         1 <0>         0.1216
     43 H13        -3.7250   -3.9444   10.4626 H         1 <0>         0.1241
     44 H14        -2.3666   -2.2561   11.6319 H         1 <0>         0.1246
     45 H15        -1.4245   -0.3540   10.3837 H         1 <0>         0.1338
     46 H16         2.1290   -0.4369    6.4225 H         1 <0>         0.1153
     47 H17         4.1385    0.0056    7.8115 H         1 <0>         0.1389
     48 H18         3.8227    0.7724   10.1556 H         1 <0>         0.1421
     49 H19         1.5446    1.0709   11.0315 H         1 <0>         0.1670
     50 H20        -0.3030    1.9900    4.1119 H         1 <0>         0.4109
     51 H21        -0.2729    1.8855    5.7885 H         1 <0>         0.4285
     52 H22         0.0622   -2.3599    2.6993 H         1 <0>         0.4488
@<TRIPOS>BOND
     1    1    2 1
     2    1   31 1
     3    1   32 1
     4    1   33 1
     5    2    7 ar
     6    2    3 ar
     7    3    4 ar
     8    3   34 1
     9    4    5 ar
    10    4   35 1
    11    5    6 ar
    12    5   30 1
    13    6    7 ar
    14    6   36 1
    15    7    8 1
    16    8    9 1
    17    8   37 1
    18    9   14 ar
    19    9   10 ar
    20   10   11 ar
    21   10   29 1
    22   11   12 ar
    23   11   15 1
    24   12   13 ar
    25   13   14 ar
    26   13   38 1
    27   14   52 1
    28   15   16 1
    29   15   23 1
    30   16   17 1
    31   16   39 1
    32   16   40 1
    33   17   22 ar
    34   17   18 ar
    35   18   19 ar
    36   18   41 1
    37   19   20 ar
    38   19   42 1
    39   20   21 ar
    40   20   43 1
    41   21   22 ar
    42   21   44 1
    43   22   45 1
    44   23   28 ar
    45   23   24 ar
    46   24   25 ar
    47   24   46 1
    48   25   26 ar
    49   25   47 1
    50   26   27 ar
    51   26   48 1
    52   27   28 ar
    53   27   49 1
    54   29   50 1
    55   29   51 1
@<TRIPOS>MOLECULE
ZINC04459964
   54    59     0     0     0
SMALL
USER_CHARGES

@<TRIPOS>ATOM
      1 C1         -0.0166    1.3763    0.0096 C.ar      1 <0>        -0.1020
      2 C2          1.1668    2.0980    0.0022 C.ar      1 <0>        -0.0391
      3 C3          2.3858    1.4472   -0.0130 C.ar      1 <0>        -0.0565
      4 C4          2.4243    0.0607   -0.0208 C.ar      1 <0>        -0.0040
      5 C5          1.2201   -0.6766   -0.0133 C.ar      1 <0>        -0.1622
      6 C6          0.0021   -0.0041    0.0020 C.ar      1 <0>        -0.0130
      7 C7          1.6136   -2.0928   -0.0251 C.cat     1 <0>         0.5926
      8 N1          2.9221   -2.1800   -0.0383 N.pl3     1 <0>        -0.5903
      9 C8          3.5017   -0.9492   -0.0370 C.2       1 <0>         0.2822
     10 N2          4.7899   -0.7029   -0.0482 N.2       1 <0>        -0.1241
     11 N3          5.7056   -1.7631   -0.0631 N.am      1 <0>        -0.5719
     12 C9          7.0294   -1.5101   -0.0745 C.2       1 <0>         0.5816
     13 O1          7.4288   -0.3619   -0.0719 O.2       1 <0>        -0.4614
     14 C10         7.9951   -2.6282   -0.0902 C.ar      1 <0>        -0.1358
     15 C11         7.5398   -3.9481   -0.0991 C.ar      1 <0>        -0.0899
     16 C12         8.4469   -4.9872   -0.1137 C.ar      1 <0>        -0.1032
     17 C13         9.8053   -4.7239   -0.1196 C.ar      1 <0>        -0.0734
     18 C14        10.2634   -3.4183   -0.1110 C.ar      1 <0>        -0.0948
     19 C15         9.3672   -2.3696   -0.1021 C.ar      1 <0>        -0.0448
     20 C16        10.7903   -5.8643   -0.1351 C.3       1 <0>         0.1510
     21 N4         11.1012   -6.2223   -1.5213 N.am      1 <0>        -0.5445
     22 C17        10.4033   -7.1575   -2.2751 C.ar      1 <0>         0.1471
     23 C18         9.3224   -8.0001   -2.0928 C.ar      1 <0>        -0.1155
     24 C19         8.9010   -8.8280   -3.1326 C.ar      1 <0>        -0.0949
     25 C20         9.5079   -8.8608   -4.3588 C.ar      1 <0>        -0.1074
     26 C21        10.6102   -8.0197   -4.5838 C.ar      1 <0>        -0.0319
     27 C22        11.0098   -7.2017   -3.5263 C.ar      1 <0>        -0.1043
     28 C23        12.0884   -6.3064   -3.5835 C.ar      1 <0>        -0.1660
     29 C24        12.7857   -6.2478   -4.7773 C.ar      1 <0>        -0.0014
     30 C25        12.3986   -7.0579   -5.8443 C.ar      1 <0>        -0.1302
     31 C26        11.3450   -7.9300   -5.7784 C.ar      1 <0>        -0.0568
     32 C27        12.1100   -5.6824   -2.2552 C.2       1 <0>         0.5756
     33 O2         12.8949   -4.8332   -1.8764 O.2       1 <0>        -0.4839
     34 N5          0.7420   -3.1638   -0.0223 N.pl3     1 <0>        -0.7533
     35 H1         -0.9618    1.8986    0.0260 H         1 <0>         0.1587
     36 H2          1.1359    3.1775    0.0079 H         1 <0>         0.1599
     37 H3          3.3042    2.0155   -0.0190 H         1 <0>         0.1598
     38 H4         -0.9243   -0.5593    0.0083 H         1 <0>         0.1526
     39 H5          5.3869   -2.6793   -0.0652 H         1 <0>         0.3918
     40 H6          6.4798   -4.1550   -0.0941 H         1 <0>         0.1188
     41 H7          8.0960   -6.0086   -0.1202 H         1 <0>         0.1354
     42 H8         11.3250   -3.2197   -0.1153 H         1 <0>         0.1451
     43 H9          9.7260   -1.3510   -0.1003 H         1 <0>         0.1468
     44 H10        11.7044   -5.5619    0.3758 H         1 <0>         0.1097
     45 H11        10.3573   -6.7253    0.3741 H         1 <0>         0.1041
     46 H12         8.8048   -8.0174   -1.1450 H         1 <0>         0.1271
     47 H13         8.0538   -9.4757   -2.9618 H         1 <0>         0.1312
     48 H14         9.1478   -9.5188   -5.1358 H         1 <0>         0.1380
     49 H15        13.6259   -5.5774   -4.8822 H         1 <0>         0.1401
     50 H16        12.9574   -6.9954   -6.7664 H         1 <0>         0.1382
     51 H17        11.0825   -8.5388   -6.6310 H         1 <0>         0.1427
     52 H18        -0.2157   -3.0098   -0.0118 H         1 <0>         0.4512
     53 H19         1.0873   -4.0702   -0.0308 H         1 <0>         0.4348
     54 H20         3.4142   -3.0158   -0.0482 H         1 <0>         0.4406
@<TRIPOS>BOND
     1    1    6 ar
     2    1    2 ar
     3    1   35 1
     4    2    3 ar
     5    2   36 1
     6    3    4 ar
     7    3   37 1
     8    4    9 1
     9    4    5 ar
    10    5    6 ar
    11    5    7 1
    12    6   38 1
    13    7    8 2
    14    7   34 1
    15    8    9 1
    16    8   54 1
    17    9   10 2
    18   10   11 1
    19   11   12 am
    20   11   39 1
    21   12   13 2
    22   12   14 1
    23   14   19 ar
    24   14   15 ar
    25   15   16 ar
    26   15   40 1
    27   16   17 ar
    28   16   41 1
    29   17   18 ar
    30   17   20 1
    31   18   19 ar
    32   18   42 1
    33   19   43 1
    34   20   21 1
    35   20   44 1
    36   20   45 1
    37   21   32 am
    38   21   22 1
    39   22   27 ar
    40   22   23 ar
    41   23   24 ar
    42   23   46 1
    43   24   25 ar
    44   24   47 1
    45   25   26 ar
    46   25   48 1
    47   26   31 ar
    48   26   27 ar
    49   27   28 ar
    50   28   29 ar
    51   28   32 1
    52   29   30 ar
    53   29   49 1
    54   30   31 ar
    55   30   50 1
    56   31   51 1
    57   32   33 2
    58   34   52 1
    59   34   53 1
@<TRIPOS>MOLECULE
ZINC05986015
   58    60     0     0     0
SMALL
USER_CHARGES
5-(4-dimethylaminophenyl)-1-[2-(2-hydroxyethylamino)ethyl]-4-(hydroxy-phenyl-methylene)-pyrrolidine-2,3-dione
@<TRIPOS>ATOM
      1 C1          1.9925    5.5800    4.9743 C.3       1 <0>         0.0830
      2 N1          1.3223    4.2919    4.7793 N.pl3     1 <0>        -0.6333
      3 C2          0.6410    3.6432    5.9024 C.3       1 <0>         0.0883
      4 C3          1.3329    3.6823    3.5226 C.ar      1 <0>         0.2281
      5 C4          2.0728    4.2371    2.4861 C.ar      1 <0>        -0.1967
      6 C5          2.0814    3.6316    1.2449 C.ar      1 <0>        -0.0364
      7 C6          1.3547    2.4742    1.0334 C.ar      1 <0>        -0.1666
      8 C7          0.6126    1.9224    2.0616 C.ar      1 <0>        -0.0687
      9 C8          0.6041    2.5197    3.3068 C.ar      1 <0>        -0.2077
     10 C9          1.3665    1.8163   -0.3223 C.3       1 <0>         0.2505
     11 H1          1.7036    2.5251   -1.0787 H         1 <0>         0.1020
     12 C10         2.2749    0.6087   -0.3035 C.2       1 <0>        -0.3425
     13 C11         3.6283    0.5936   -0.0362 C.2       1 <0>         0.3170
     14 C12         4.3462   -0.6898    0.0588 C.ar      1 <0>        -0.1491
     15 C13         3.8331   -1.7255    0.8460 C.ar      1 <0>        -0.0346
     16 C14         4.5077   -2.9254    0.9253 C.ar      1 <0>        -0.1226
     17 C15         5.6960   -3.1020    0.2378 C.ar      1 <0>        -0.0800
     18 C16         6.2132   -2.0797   -0.5389 C.ar      1 <0>        -0.1239
     19 C17         5.5471   -0.8762   -0.6332 C.ar      1 <0>        -0.0862
     20 O1          4.2949    1.7544    0.1383 O.3       1 <0>        -0.4294
     21 C18         1.4634   -0.4951   -0.6130 C.2       1 <0>         0.3867
     22 O2          1.8323   -1.6525   -0.6944 O.2       1 <0>        -0.3974
     23 C19         0.0742   -0.0043   -0.8236 C.2       1 <0>         0.4851
     24 O3         -0.8757   -0.7051   -1.1070 O.2       1 <0>        -0.4801
     25 N2          0.0253    1.3276   -0.6548 N.am      1 <0>        -0.5966
     26 C20        -1.1740    2.1585   -0.7876 C.3       1 <0>         0.1143
     27 C21        -1.8768    2.2600    0.5676 C.3       1 <0>        -0.0434
     28 C22        -3.7816    3.2133    1.7190 C.3       1 <0>         0.0020
     29 C23        -5.0256    4.0859    1.5406 C.3       1 <0>         0.0452
     30 O4         -5.9463    3.4299    0.6665 O.3       1 <0>        -0.5809
     31 H2          2.5149    5.8599    4.0595 H         1 <0>         0.0801
     32 H3          1.2518    6.3418    5.2174 H         1 <0>         0.0576
     33 H4          2.7094    5.4965    5.7911 H         1 <0>         0.0621
     34 H5          1.3418    2.9928    6.4257 H         1 <0>         0.0542
     35 H6          0.2683    4.4032    6.5892 H         1 <0>         0.0714
     36 H7         -0.1940    3.0511    5.5278 H         1 <0>         0.0676
     37 H8          2.6408    5.1408    2.6507 H         1 <0>         0.1293
     38 H9          2.6567    4.0622    0.4386 H         1 <0>         0.1280
     39 H10         0.0424    1.0211    1.8917 H         1 <0>         0.1135
     40 H11         0.0278    2.0858    4.1105 H         1 <0>         0.1246
     41 H12         2.9085   -1.5874    1.3869 H         1 <0>         0.1234
     42 H13         4.1101   -3.7280    1.5287 H         1 <0>         0.1327
     43 H14         6.2222   -4.0426    0.3075 H         1 <0>         0.1323
     44 H15         7.1407   -2.2252   -1.0726 H         1 <0>         0.1343
     45 H16         5.9515   -0.0796   -1.2401 H         1 <0>         0.1314
     46 H17         5.2587    1.5610    0.3219 H         1 <0>         0.4175
     47 H18        -0.8900    3.1552   -1.1252 H         1 <0>         0.1082
     48 H19        -1.8497    1.7075   -1.5144 H         1 <0>         0.1082
     49 H20        -2.1609    1.2633    0.9052 H         1 <0>         0.1343
     50 H21        -1.2012    2.7110    1.2944 H         1 <0>         0.1456
     51 H22        -4.0789    2.2231    2.0646 H         1 <0>         0.1380
     52 H23        -3.1192    3.6708    2.4538 H         1 <0>         0.1427
     53 H24        -5.4975    4.2484    2.5097 H         1 <0>         0.0955
     54 H25        -4.7377    5.0455    1.1113 H         1 <0>         0.0727
     55 H26        -6.7603    3.9272    0.5077 H         1 <0>         0.4100
     56 N3         -3.0826    3.0977    0.4252 N.4       1 <0>        -0.5124
     57 H27        -3.7129    2.6698   -0.2632 H         1 <0>         0.4404
     58 H28        -2.8088    4.0335    0.1033 H         1 <0>         0.4306
@<TRIPOS>BOND
     1    1    2 1
     2    1   31 1
     3    1   32 1
     4    1   33 1
     5    2    3 1
     6    2    4 1
     7    3   34 1
     8    3   35 1
     9    3   36 1
    10    4    9 ar
    11    4    5 ar
    12    5    6 ar
    13    5   37 1
    14    6    7 ar
    15    6   38 1
    16    7    8 ar
    17    7   10 1
    18    8    9 ar
    19    8   39 1
    20    9   40 1
    21   10   11 1
    22   10   25 1
    23   10   12 1
    24   12   13 2
    25   12   21 1
    26   13   14 1
    27   13   20 1
    28   14   19 ar
    29   14   15 ar
    30   15   16 ar
    31   15   41 1
    32   16   17 ar
    33   16   42 1
    34   17   18 ar
    35   17   43 1
    36   18   19 ar
    37   18   44 1
    38   19   45 1
    39   20   46 1
    40   21   22 2
    41   21   23 1
    42   23   24 2
    43   23   25 am
    44   25   26 1
    45   26   27 1
    46   26   47 1
    47   26   48 1
    48   27   49 1
    49   27   50 1
    50   27   56 1
    51   28   29 1
    52   28   51 1
    53   28   52 1
    54   28   56 1
    55   29   30 1
    56   29   53 1
    57   29   54 1
    58   30   55 1
    59   56   57 1
    60   56   58 1
@<TRIPOS>MOLECULE
ZINC15707986
   57    60     0     0     0
SMALL
USER_CHARGES
N-[(4R,7S,8aS)-1-oxo-4-[3-oxo-3-(2-thienylmethylamino)propyl]-3,4,6,7,8,8a-hexahydro-2H-pyrrolo[1,5-a]pyrazin-7-yl]-3-fluoro-benzamide
@<TRIPOS>ATOM
      1 C1          0.5923    3.9171   -0.1764 C.ar      1 <0>        -0.0907
      2 C2          0.7047    2.5426   -0.1293 C.ar      1 <0>        -0.0627
      3 C3         -0.4441    1.7503   -0.1249 C.ar      1 <0>        -0.1221
      4 C4         -1.7015    2.3540   -0.1736 C.ar      1 <0>        -0.1251
      5 C5         -1.8014    3.7314   -0.2156 C.ar      1 <0>         0.0976
      6 C6         -0.6557    4.5114   -0.2197 C.ar      1 <0>        -0.1164
      7 F1         -3.0173    4.3186   -0.2580 F         1 <0>        -0.1305
      8 C7         -0.3295    0.2771   -0.0751 C.2       1 <0>         0.5723
      9 O1          0.7670   -0.2463   -0.0378 O.2       1 <0>        -0.5078
     10 N1         -1.4407   -0.4855   -0.0709 N.am      1 <0>        -0.7355
     11 C8         -1.3271   -1.9453   -0.0215 C.3       1 <0>         0.1245
     12 H1         -0.4667   -2.2378    0.5803 H         1 <0>         0.1464
     13 C9         -2.6263   -2.5687    0.5549 C.3       1 <0>        -0.1346
     14 C10        -3.1020   -3.5123   -0.5536 C.3       1 <0>         0.0127
     15 H2         -2.6512   -4.4968   -0.4287 H         1 <0>         0.1768
     16 C11        -4.5817   -3.6461   -0.7018 C.2       1 <0>         0.5106
     17 O2         -5.3052   -3.5795    0.2693 O.2       1 <0>        -0.4692
     18 N2         -5.1023   -3.8427   -1.9288 N.am      1 <0>        -0.7280
     19 C12        -4.3355   -3.8130   -3.1675 C.3       1 <0>         0.0813
     20 C13        -2.8218   -3.7796   -2.9107 C.3       1 <0>         0.0282
     21 H3         -2.4671   -4.7785   -2.6565 H         1 <0>         0.1518
     22 C14        -1.2054   -2.5270   -1.4576 C.3       1 <0>        -0.0175
     23 C15        -2.0943   -3.2693   -4.1562 C.3       1 <0>        -0.1216
     24 C16        -2.2320   -4.2947   -5.2833 C.3       1 <0>        -0.1416
     25 C17        -1.4152   -3.8504   -6.4692 C.2       1 <0>         0.5137
     26 O3         -0.7850   -2.8154   -6.4180 O.2       1 <0>        -0.5350
     27 N3         -1.3851   -4.6030   -7.5869 N.am      1 <0>        -0.7217
     28 C18        -0.5911   -4.1711   -8.7397 C.3       1 <0>         0.2088
     29 C19        -0.7268   -5.1810   -9.8499 C.2       1 <0>        -0.1922
     30 C20        -1.6352   -5.2280  -10.8548 C.2       1 <0>        -0.1220
     31 C21        -1.5673   -6.2598  -11.7721 C.2       1 <0>        -0.1680
     32 C22        -0.5943   -7.1941  -11.6397 C.2       1 <0>        -0.1517
     33 S1          0.2721   -6.6217  -10.1875 S.3       1 <0>         0.0552
     34 H4          1.4813    4.5304   -0.1798 H         1 <0>         0.1485
     35 H5          1.6804    2.0807   -0.0955 H         1 <0>         0.1475
     36 H6         -2.5943    1.7462   -0.1745 H         1 <0>         0.1345
     37 H7         -0.7379    5.5876   -0.2571 H         1 <0>         0.1478
     38 H8         -2.3157   -0.0679   -0.1006 H         1 <0>         0.4066
     39 H9         -2.4112   -3.1256    1.4669 H         1 <0>         0.1394
     40 H10        -3.3703   -1.7950    0.7446 H         1 <0>         0.1149
     41 H11        -6.0547   -4.0158   -1.9921 H         1 <0>         0.4270
     42 H12        -4.6174   -2.9275   -3.7371 H         1 <0>         0.1048
     43 H13        -4.5757   -4.7009   -3.7523 H         1 <0>         0.1246
     44 H14        -0.8176   -1.7757   -2.1455 H         1 <0>         0.1507
     45 H15        -0.5715   -3.4137   -1.4611 H         1 <0>         0.1545
     46 H16        -2.5329   -2.3224   -4.4708 H         1 <0>         0.1021
     47 H17        -1.0391   -3.1222   -3.9258 H         1 <0>         0.1080
     48 H18        -1.8736   -5.2645   -4.9381 H         1 <0>         0.1089
     49 H19        -3.2794   -4.3769   -5.5738 H         1 <0>         0.1080
     50 H20        -1.8892   -5.4308   -7.6279 H         1 <0>         0.4064
     51 H21        -0.9495   -3.2013   -9.0849 H         1 <0>         0.0942
     52 H22         0.4563   -4.0889   -8.4493 H         1 <0>         0.0872
     53 H23        -2.4005   -4.4704  -10.9377 H         1 <0>         0.1354
     54 H24        -2.2792   -6.3208  -12.5821 H         1 <0>         0.1395
     55 H25        -0.3929   -8.0584  -12.2553 H         1 <0>         0.1909
     56 N4         -2.6239   -2.8670   -1.7386 N.4       1 <0>        -0.3976
     57 H26        -3.1498   -2.0017   -1.9090 H         1 <0>         0.4306
@<TRIPOS>BOND
     1    1    6 ar
     2    1    2 ar
     3    1   34 1
     4    2    3 ar
     5    2   35 1
     6    3    4 ar
     7    3    8 1
     8    4    5 ar
     9    4   36 1
    10    5    6 ar
    11    5    7 1
    12    6   37 1
    13    8    9 2
    14    8   10 am
    15   10   11 1
    16   10   38 1
    17   11   12 1
    18   11   22 1
    19   11   13 1
    20   13   14 1
    21   13   39 1
    22   13   40 1
    23   14   15 1
    24   14   16 1
    25   14   56 1
    26   16   17 2
    27   16   18 am
    28   18   19 1
    29   18   41 1
    30   19   20 1
    31   19   42 1
    32   19   43 1
    33   20   21 1
    34   20   23 1
    35   20   56 1
    36   22   44 1
    37   22   45 1
    38   22   56 1
    39   23   24 1
    40   23   46 1
    41   23   47 1
    42   24   25 1
    43   24   48 1
    44   24   49 1
    45   25   26 2
    46   25   27 am
    47   27   28 1
    48   27   50 1
    49   28   29 1
    50   28   51 1
    51   28   52 1
    52   29   33 1
    53   29   30 2
    54   30   31 1
    55   30   53 1
    56   31   32 2
    57   31   54 1
    58   32   33 1
    59   32   55 1
    60   56   57 1
@<TRIPOS>MOLECULE
ZINC35337814
   58    61     0     0     0
SMALL
USER_CHARGES

@<TRIPOS>ATOM
      1 C1          1.0209    1.0903    0.8256 C.3       1 <0>        -0.1161
      2 C2          0.7529   -0.3721    0.5790 C.2       1 <0>         0.1819
      3 C3         -0.5321   -0.8175    0.5128 C.2       1 <0>        -0.2269
      4 C4         -0.7977   -2.2915    0.3295 C.3       1 <0>         0.2212
      5 H1         -1.6930   -2.4293   -0.2768 H         1 <0>         0.1336
      6 N1          0.3607   -2.8973   -0.3534 N.pl3     1 <0>        -0.5235
      7 C5          0.1119   -3.8995   -1.3733 C.3       1 <0>         0.0829
      8 C6          1.1447   -4.9923   -1.5052 C.3       1 <0>        -0.1480
      9 C7          2.5461   -4.4266   -1.7465 C.3       1 <0>        -0.1199
     10 S1          3.0134   -3.4837   -0.2592 S.3       1 <0>         0.0570
     11 C8          1.6071   -2.4392   -0.0310 C.cat     1 <0>         0.4468
     12 N2          1.7758   -1.2099    0.4234 N.pl3     1 <0>        -0.5256
     13 C9         -0.9931   -2.9414    1.6750 C.ar      1 <0>        -0.1061
     14 C10         0.1047   -3.2670    2.4508 C.ar      1 <0>        -0.1232
     15 C11        -0.0703   -3.8638    3.6856 C.ar      1 <0>        -0.0808
     16 C12        -1.3429   -4.1364    4.1485 C.ar      1 <0>        -0.0983
     17 C13        -2.4470   -3.8103    3.3723 C.ar      1 <0>         0.1868
     18 C14        -2.2681   -3.2061    2.1346 C.ar      1 <0>        -0.1245
     19 N3         -3.7375   -4.0851    3.8384 N.am      1 <0>        -0.6828
     20 C15        -4.0052   -4.0221    5.1578 C.2       1 <0>         0.7059
     21 O1         -3.1522   -3.6358    5.9334 O.2       1 <0>        -0.5447
     22 N4         -5.2183   -4.3873    5.6176 N.am      1 <0>        -0.6760
     23 C16        -5.5322   -4.2206    6.9669 C.ar      1 <0>         0.1848
     24 C17        -5.0076   -3.1433    7.6734 C.ar      1 <0>        -0.1220
     25 C18        -5.3151   -2.9756    9.0050 C.ar      1 <0>        -0.0475
     26 C19        -6.1560   -3.8894    9.6467 C.ar      1 <0>        -0.0373
     27 C20        -6.6816   -4.9705    8.9335 C.ar      1 <0>        -0.0462
     28 C21        -6.3736   -5.1291    7.6009 C.ar      1 <0>        -0.1434
     29 C22        -6.4777   -3.7187   11.0316 C.1       1 <0>         0.2467
     30 N5         -6.7330   -3.5832   12.1302 N.1       1 <0>        -0.4059
     31 C23        -1.6034    0.0893    0.6140 C.2       1 <0>         0.5672
     32 O2         -1.3831    1.2788    0.7616 O.2       1 <0>        -0.5157
     33 N6         -2.8732   -0.3577    0.5478 N.am      1 <0>        -0.7258
     34 C24        -3.9885    0.5863    0.6532 C.3       1 <0>         0.0833
     35 H2          2.0967    1.2647    0.8423 H         1 <0>         0.0774
     36 H3          0.5692    1.6818    0.0292 H         1 <0>         0.1210
     37 H4          0.5905    1.3820    1.7836 H         1 <0>         0.1171
     38 H5         -0.8497   -4.3668   -1.1607 H         1 <0>         0.1266
     39 H6          0.0324   -3.3914   -2.3343 H         1 <0>         0.1046
     40 H7          1.1538   -5.5843   -0.5900 H         1 <0>         0.1034
     41 H8          0.8738   -5.6376   -2.3408 H         1 <0>         0.1323
     42 H9          3.2524   -5.2413   -1.9062 H         1 <0>         0.1567
     43 H10         2.5357   -3.7681   -2.6151 H         1 <0>         0.1252
     44 H11         1.1007   -3.0549    2.0911 H         1 <0>         0.1017
     45 H12         0.7890   -4.1175    4.2887 H         1 <0>         0.1374
     46 H13        -1.4789   -4.6029    5.1130 H         1 <0>         0.1488
     47 H14        -3.1250   -2.9476    1.5303 H         1 <0>         0.1299
     48 H15        -4.4395   -4.3209    3.2119 H         1 <0>         0.4133
     49 H16        -5.8732   -4.7659    5.0105 H         1 <0>         0.4139
     50 H17        -4.3580   -2.4376    7.1769 H         1 <0>         0.1447
     51 H18        -4.9069   -2.1394    9.5531 H         1 <0>         0.1390
     52 H19        -7.3316   -5.6785    9.4261 H         1 <0>         0.1413
     53 H20        -6.7826   -5.9618    7.0481 H         1 <0>         0.1390
     54 H21        -3.0486   -1.3044    0.4303 H         1 <0>         0.3938
     55 H22        -3.9400    1.1003    1.6132 H         1 <0>         0.0689
     56 H23        -3.9240    1.3165   -0.1535 H         1 <0>         0.0691
     57 H24        -4.9314    0.0446    0.5783 H         1 <0>         0.0815
     58 H25         2.6696   -0.9115    0.6536 H         1 <0>         0.4553
@<TRIPOS>BOND
     1    1    2 1
     2    1   35 1
     3    1   36 1
     4    1   37 1
     5    2   12 1
     6    2    3 2
     7    3    4 1
     8    3   31 1
     9    4    5 1
    10    4    6 1
    11    4   13 1
    12    6   11 1
    13    6    7 1
    14    7    8 1
    15    7   38 1
    16    7   39 1
    17    8    9 1
    18    8   40 1
    19    8   41 1
    20    9   10 1
    21    9   42 1
    22    9   43 1
    23   10   11 1
    24   11   12 2
    25   12   58 1
    26   13   18 ar
    27   13   14 ar
    28   14   15 ar
    29   14   44 1
    30   15   16 ar
    31   15   45 1
    32   16   17 ar
    33   16   46 1
    34   17   18 ar
    35   17   19 1
    36   18   47 1
    37   19   20 am
    38   19   48 1
    39   20   21 2
    40   20   22 am
    41   22   23 1
    42   22   49 1
    43   23   28 ar
    44   23   24 ar
    45   24   25 ar
    46   24   50 1
    47   25   26 ar
    48   25   51 1
    49   26   27 ar
    50   26   29 1
    51   27   28 ar
    52   27   52 1
    53   28   53 1
    54   29   30 3
    55   31   32 2
    56   31   33 am
    57   33   34 1
    58   33   54 1
    59   34   55 1
    60   34   56 1
    61   34   57 1
@<TRIPOS>MOLECULE
ZINC44713773
   62    65     0     0     0
SMALL
USER_CHARGES

@<TRIPOS>ATOM
      1 C1         -1.8754    0.2418   -0.4214 C.3       1 <0>        -0.1050
      2 C2         -2.3403   -0.0362   -1.8277 C.2       1 <0>         0.1190
      3 C3         -1.6357    0.1909   -2.9604 C.2       1 <0>        -0.2630
      4 C4         -2.4256   -0.2042   -4.0450 C.2       1 <0>         0.0807
      5 N1         -3.5635   -0.6524   -3.5801 N.2       1 <0>        -0.2826
      6 N2         -3.5316   -0.5615   -2.1826 N.pl3     1 <0>        -0.4664
      7 H1         -4.2413   -0.8271   -1.5771 H         1 <0>         0.4443
      8 C5         -2.0339   -0.1264   -5.4981 C.3       1 <0>        -0.0825
      9 C6         -0.2459    0.7680   -3.0394 C.3       1 <0>         0.2245
     10 H2          0.2187    0.7328   -2.0539 H         1 <0>         0.0971
     11 C7         -0.3229    2.2201   -3.5153 C.3       1 <0>        -0.1576
     12 N3          0.5546   -0.0140   -3.9849 N.am      1 <0>        -0.7196
     13 C8          1.8972   -0.0408   -3.8702 C.2       1 <0>         0.5204
     14 O1          2.4427    0.5824   -2.9842 O.2       1 <0>        -0.5207
     15 C9          2.7206   -0.8452   -4.8428 C.3       1 <0>        -0.1146
     16 H3          2.1485   -1.6978   -5.2089 H         1 <0>         0.1112
     17 C10         4.0290   -1.3227   -4.1738 C.3       1 <0>         0.1164
     18 N4          5.0516   -1.2291   -5.2423 N.am      1 <0>        -0.6185
     19 C11         4.7172    0.0219   -5.9641 C.3       1 <0>         0.0919
     20 C12         3.1765    0.0376   -6.0166 C.3       1 <0>        -0.0720
     21 C13         2.6576    1.4614   -5.8398 C.3       1 <0>        -0.1503
     22 C14         3.0740    2.3054   -7.0477 C.3       1 <0>        -0.0084
     23 N5          2.5264    1.7123   -8.2737 N.4       1 <0>        -0.5051
     24 C15         3.1025    0.3788   -8.4853 C.3       1 <0>        -0.0115
     25 C16         2.6872   -0.5467   -7.3383 C.3       1 <0>        -0.1365
     26 C17         6.0580   -2.0877   -5.4999 C.2       1 <0>         0.5817
     27 O2          6.1374   -3.1333   -4.8850 O.2       1 <0>        -0.5089
     28 C18         7.0651   -1.7580   -6.5302 C.ar      1 <0>        -0.1201
     29 C19         7.2656   -0.4311   -6.9150 C.ar      1 <0>        -0.1024
     30 C20         8.2068   -0.1297   -7.8769 C.ar      1 <0>        -0.1001
     31 C21         8.9522   -1.1402   -8.4607 C.ar      1 <0>        -0.0664
     32 C22         8.7580   -2.4583   -8.0833 C.ar      1 <0>        -0.0911
     33 C23         7.8238   -2.7716   -7.1184 C.ar      1 <0>        -0.0502
     34 Br1        10.2403   -0.7184   -9.7794 Br        1 <0>        -0.0280
     35 H4         -1.3632   -0.6362   -0.0278 H         1 <0>         0.0878
     36 H5         -1.1910    1.0901   -0.4260 H         1 <0>         0.0903
     37 H6         -2.7358    0.4725    0.2068 H         1 <0>         0.0793
     38 H7         -1.5430   -1.0540   -5.7924 H         1 <0>         0.0758
     39 H8         -2.9255    0.0220   -6.1073 H         1 <0>         0.0821
     40 H9         -1.3498    0.7093   -5.6458 H         1 <0>         0.0741
     41 H10        -0.7874    2.2553   -4.5007 H         1 <0>         0.0561
     42 H11        -0.9184    2.8019   -2.8118 H         1 <0>         0.0712
     43 H12         0.6824    2.6375   -3.5724 H         1 <0>         0.0610
     44 H13         0.1183   -0.5124   -4.6935 H         1 <0>         0.3988
     45 H14         4.2896   -0.6704   -3.3402 H         1 <0>         0.1014
     46 H15         3.9278   -2.3533   -3.8337 H         1 <0>         0.0981
     47 H16         5.0889    0.8880   -5.4165 H         1 <0>         0.0915
     48 H17         5.1311    0.0017   -6.9722 H         1 <0>         0.0946
     49 H18         1.5703    1.4456   -5.7644 H         1 <0>         0.1000
     50 H19         3.0796    1.8923   -4.9319 H         1 <0>         0.1287
     51 H20         2.6904    3.3190   -6.9319 H         1 <0>         0.1407
     52 H21         4.1617    2.3343   -7.1128 H         1 <0>         0.1326
     53 H22         1.5240    1.6347   -8.1895 H         1 <0>         0.4286
     54 H23         2.7398   -0.0277   -9.4294 H         1 <0>         0.1411
     55 H24         4.1895    0.4536   -8.5162 H         1 <0>         0.1319
     56 H25         3.1300   -1.5315   -7.4869 H         1 <0>         0.1192
     57 H26         1.6010   -0.6350   -7.3171 H         1 <0>         0.0989
     58 H27         6.6846    0.3578   -6.4605 H         1 <0>         0.1407
     59 H28         8.3626    0.8964   -8.1756 H         1 <0>         0.1408
     60 H29         9.3421   -3.2420   -8.5425 H         1 <0>         0.1462
     61 H30         7.6763   -3.7995   -6.8216 H         1 <0>         0.1478
     62 H31         2.7505    2.3028   -9.0606 H         1 <0>         0.4346
@<TRIPOS>BOND
     1    1    2 1
     2    1   35 1
     3    1   36 1
     4    1   37 1
     5    2    6 1
     6    2    3 2
     7    3    4 1
     8    3    9 1
     9    4    5 2
    10    4    8 1
    11    5    6 1
    12    6    7 1
    13    8   38 1
    14    8   39 1
    15    8   40 1
    16    9   10 1
    17    9   11 1
    18    9   12 1
    19   11   41 1
    20   11   42 1
    21   11   43 1
    22   12   13 am
    23   12   44 1
    24   13   14 2
    25   13   15 1
    26   15   16 1
    27   15   20 1
    28   15   17 1
    29   17   18 1
    30   17   45 1
    31   17   46 1
    32   18   19 1
    33   18   26 am
    34   19   20 1
    35   19   47 1
    36   19   48 1
    37   20   25 1
    38   20   21 1
    39   21   22 1
    40   21   49 1
    41   21   50 1
    42   22   23 1
    43   22   51 1
    44   22   52 1
    45   23   24 1
    46   23   53 1
    47   23   62 1
    48   24   25 1
    49   24   54 1
    50   24   55 1
    51   25   56 1
    52   25   57 1
    53   26   27 2
    54   26   28 1
    55   28   33 ar
    56   28   29 ar
    57   29   30 ar
    58   29   58 1
    59   30   31 ar
    60   30   59 1
    61   31   32 ar
    62   31   34 1
    63   32   33 ar
    64   32   60 1
    65   33   61 1
@<TRIPOS>MOLECULE
ZINC05029343
   50    52     0     0     0
SMALL
USER_CHARGES

@<TRIPOS>ATOM
      1 C1         -0.5541    0.1462   -0.2726 C.3       1 <0>        -0.1799
      2 C2         -0.5896   -1.3343    0.0062 C.2       1 <0>         0.2440
      3 N1         -0.4951   -1.7674    1.2259 N.2       1 <0>        -0.3138
      4 N2         -0.3599   -0.8585    2.2834 N.pl3     1 <0>        -0.5120
      5 C3         -0.2596   -1.3179    3.5774 C.cat     1 <0>         0.4949
      6 N3         -0.2903   -2.5997    3.8188 N.pl3     1 <0>        -0.7103
      7 S1         -0.0896   -0.1748    4.9075 S.3       1 <0>         0.1325
      8 C4          0.0028   -1.2276    6.3818 C.3       1 <0>        -0.1700
      9 H1         -0.8540   -1.8998    6.4260 H         1 <0>         0.1741
     10 C5          0.0840   -0.3670    7.6591 C.3       1 <0>        -0.1232
     11 C6          1.4170   -0.7527    8.2625 C.2       1 <0>         0.5245
     12 O1          1.8791   -0.3039    9.2895 O.2       1 <0>        -0.4242
     13 N4          2.0050   -1.6683    7.4826 N.am      1 <0>        -0.5038
     14 C7          1.2966   -2.0122    6.3957 C.2       1 <0>         0.5319
     15 O2          1.6369   -2.8201    5.5583 O.2       1 <0>        -0.4582
     16 C8          3.2589   -2.2251    7.7781 C.ar      1 <0>         0.0437
     17 C9          3.4079   -3.0538    8.8817 C.ar      1 <0>        -0.0506
     18 C10         4.6417   -3.6018    9.1718 C.ar      1 <0>        -0.1384
     19 C11         5.7323   -3.3243    8.3604 C.ar      1 <0>         0.1567
     20 C12         5.5839   -2.4959    7.2576 C.ar      1 <0>        -0.1987
     21 C13         4.3492   -1.9520    6.9635 C.ar      1 <0>        -0.0512
     22 O3          6.9468   -3.8641    8.6464 O.3       1 <0>        -0.3078
     23 C14         8.0255   -3.5359    7.7685 C.3       1 <0>         0.0221
     24 C15        -0.7319   -2.2909   -1.1068 C.ar      1 <0>        -0.1020
     25 C16        -0.8281   -1.8272   -2.4214 C.ar      1 <0>        -0.0528
     26 C17        -0.9610   -2.7249   -3.4585 C.ar      1 <0>        -0.1502
     27 C18        -0.9993   -4.0887   -3.1987 C.ar      1 <0>         0.1558
     28 C19        -0.9040   -4.5542   -1.8936 C.ar      1 <0>        -0.1547
     29 C20        -0.7651   -3.6641   -0.8507 C.ar      1 <0>        -0.0464
     30 O4         -1.1309   -4.9701   -4.2242 O.3       1 <0>        -0.4953
     31 H2          0.4769    0.4609   -0.4341 H         1 <0>         0.1108
     32 H3         -1.1438    0.3625   -1.1635 H         1 <0>         0.1119
     33 H4         -0.9697    0.6862    0.5781 H         1 <0>         0.0783
     34 H5         -0.3370    0.0945    2.1040 H         1 <0>         0.4238
     35 H6         -0.2196   -2.9234    4.7304 H         1 <0>         0.4378
     36 H7          0.0689    0.6938    7.4086 H         1 <0>         0.1437
     37 H8         -0.7308   -0.6130    8.3399 H         1 <0>         0.1612
     38 H9          2.5591   -3.2695    9.5136 H         1 <0>         0.1370
     39 H10         4.7578   -4.2462   10.0306 H         1 <0>         0.1473
     40 H11         6.4333   -2.2796    6.6266 H         1 <0>         0.1420
     41 H12         4.2328   -1.3106    6.1024 H         1 <0>         0.1286
     42 H13         8.9349   -4.0307    8.1096 H         1 <0>         0.1090
     43 H14         7.7869   -3.8702    6.7588 H         1 <0>         0.0599
     44 H15         8.1776   -2.4566    7.7674 H         1 <0>         0.0610
     45 H16        -0.7988   -0.7668   -2.6243 H         1 <0>         0.1415
     46 H17        -1.0358   -2.3674   -4.4749 H         1 <0>         0.1446
     47 H18        -0.9342   -5.6156   -1.6962 H         1 <0>         0.1416
     48 H19        -0.6862   -4.0272    0.1634 H         1 <0>         0.1360
     49 H20        -0.2900   -5.2649   -4.5998 H         1 <0>         0.4044
     50 H21        -0.3839   -3.2290    3.0866 H         1 <0>         0.4426
@<TRIPOS>BOND
     1    1    2 1
     2    1   31 1
     3    1   32 1
     4    1   33 1
     5    2    3 2
     6    2   24 1
     7    3    4 1
     8    4    5 1
     9    4   34 1
    10    5    6 2
    11    5    7 1
    12    6   35 1
    13    6   50 1
    14    7    8 1
    15    8    9 1
    16    8   14 1
    17    8   10 1
    18   10   11 1
    19   10   36 1
    20   10   37 1
    21   11   12 2
    22   11   13 am
    23   13   14 am
    24   13   16 1
    25   14   15 2
    26   16   21 ar
    27   16   17 ar
    28   17   18 ar
    29   17   38 1
    30   18   19 ar
    31   18   39 1
    32   19   20 ar
    33   19   22 1
    34   20   21 ar
    35   20   40 1
    36   21   41 1
    37   22   23 1
    38   23   42 1
    39   23   43 1
    40   23   44 1
    41   24   29 ar
    42   24   25 ar
    43   25   26 ar
    44   25   45 1
    45   26   27 ar
    46   26   46 1
    47   27   28 ar
    48   27   30 1
    49   28   29 ar
    50   28   47 1
    51   29   48 1
    52   30   49 1
@<TRIPOS>MOLECULE
ZINC18006614
   50    52     0     0     0
SMALL
USER_CHARGES

@<TRIPOS>ATOM
      1 C1         -0.5541    0.1462   -0.2726 C.3       1 <0>        -0.1778
      2 C2         -0.5896   -1.3343    0.0062 C.2       1 <0>         0.2338
      3 N1         -0.4951   -1.7674    1.2260 N.2       1 <0>        -0.2885
      4 N2         -0.3599   -0.8585    2.2835 N.pl3     1 <0>        -0.5159
      5 C3         -0.2596   -1.3179    3.5775 C.cat     1 <0>         0.4953
      6 N3         -0.2903   -2.5997    3.8188 N.pl3     1 <0>        -0.7090
      7 S1         -0.0896   -0.1748    4.9075 S.3       1 <0>         0.1293
      8 C4          0.0028   -1.2276    6.3819 C.3       1 <0>        -0.1693
      9 H1         -0.8540   -1.8999    6.4261 H         1 <0>         0.1737
     10 C5          0.0840   -0.3670    7.6591 C.3       1 <0>        -0.1231
     11 C6          1.4170   -0.7527    8.2625 C.2       1 <0>         0.5245
     12 O1          1.8791   -0.3040    9.2896 O.2       1 <0>        -0.4249
     13 N4          2.0050   -1.6683    7.4827 N.am      1 <0>        -0.5040
     14 C7          1.2966   -2.0122    6.3957 C.2       1 <0>         0.5311
     15 O2          1.6369   -2.8201    5.5584 O.2       1 <0>        -0.4565
     16 C8          3.2589   -2.2252    7.7782 C.ar      1 <0>         0.0439
     17 C9          3.4079   -3.0538    8.8818 C.ar      1 <0>        -0.0506
     18 C10         4.6417   -3.6018    9.1719 C.ar      1 <0>        -0.1386
     19 C11         5.7323   -3.3244    8.3605 C.ar      1 <0>         0.1566
     20 C12         5.5839   -2.4959    7.2576 C.ar      1 <0>        -0.1986
     21 C13         4.3492   -1.9520    6.9636 C.ar      1 <0>        -0.0512
     22 O3          6.9468   -3.8641    8.6464 O.3       1 <0>        -0.3079
     23 C14         8.0255   -3.5360    7.7685 C.3       1 <0>         0.0221
     24 C15        -0.7318   -2.2906   -1.1065 C.ar      1 <0>        -0.1143
     25 C16        -0.8282   -1.8291   -2.4211 C.ar      1 <0>        -0.0596
     26 C17        -0.9611   -2.7291   -3.4576 C.ar      1 <0>        -0.1284
     27 C18        -0.9999   -4.0888   -3.2006 C.ar      1 <0>        -0.0612
     28 C19        -0.9055   -4.5581   -1.9039 C.ar      1 <0>        -0.1507
     29 C20        -0.7653   -3.6682   -0.8516 C.ar      1 <0>         0.1591
     30 O4         -0.6663   -4.1287    0.4223 O.3       1 <0>        -0.4834
     31 H2          0.4769    0.4609   -0.4341 H         1 <0>         0.1091
     32 H3         -1.1438    0.3624   -1.1635 H         1 <0>         0.1108
     33 H4         -0.9697    0.6862    0.5781 H         1 <0>         0.0779
     34 H5         -0.3370    0.0945    2.1041 H         1 <0>         0.4214
     35 H6         -0.2196   -2.9234    4.7305 H         1 <0>         0.4370
     36 H7          0.0689    0.6937    7.4086 H         1 <0>         0.1435
     37 H8         -0.7308   -0.6131    8.3400 H         1 <0>         0.1609
     38 H9          2.5591   -3.2696    9.5137 H         1 <0>         0.1370
     39 H10         4.7578   -4.2463   10.0307 H         1 <0>         0.1472
     40 H11         6.4333   -2.2796    6.6267 H         1 <0>         0.1420
     41 H12         4.2328   -1.3107    6.1024 H         1 <0>         0.1286
     42 H13         7.7869   -3.8702    6.7589 H         1 <0>         0.0600
     43 H14         8.1776   -2.4566    7.7675 H         1 <0>         0.0610
     44 H15         8.9349   -4.0307    8.1096 H         1 <0>         0.1090
     45 H16        -0.7990   -0.7690   -2.6256 H         1 <0>         0.1408
     46 H17        -1.0356   -2.3716   -4.4740 H         1 <0>         0.1413
     47 H18        -1.1050   -4.7870   -4.0179 H         1 <0>         0.1402
     48 H19        -0.9366   -5.6203   -1.7112 H         1 <0>         0.1413
     49 H20        -1.5166   -4.2256    0.8727 H         1 <0>         0.3906
     50 H21        -0.3839   -3.2290    3.0866 H         1 <0>         0.4446
@<TRIPOS>BOND
     1    1    2 1
     2    1   31 1
     3    1   32 1
     4    1   33 1
     5    2    3 2
     6    2   24 1
     7    3    4 1
     8    4    5 1
     9    4   34 1
    10    5    6 2
    11    5    7 1
    12    6   35 1
    13    6   50 1
    14    7    8 1
    15    8    9 1
    16    8   14 1
    17    8   10 1
    18   10   11 1
    19   10   36 1
    20   10   37 1
    21   11   12 2
    22   11   13 am
    23   13   14 am
    24   13   16 1
    25   14   15 2
    26   16   21 ar
    27   16   17 ar
    28   17   18 ar
    29   17   38 1
    30   18   19 ar
    31   18   39 1
    32   19   20 ar
    33   19   22 1
    34   20   21 ar
    35   20   40 1
    36   21   41 1
    37   22   23 1
    38   23   42 1
    39   23   43 1
    40   23   44 1
    41   24   29 ar
    42   24   25 ar
    43   25   26 ar
    44   25   45 1
    45   26   27 ar
    46   26   46 1
    47   27   28 ar
    48   27   47 1
    49   28   29 ar
    50   28   48 1
    51   29   30 1
    52   30   49 1
@<TRIPOS>MOLECULE
ZINC21968972
   34    34     0     0     0
SMALL
USER_CHARGES
2-[[(2S,6S)-2,6-dimethylcyclohexyl]amino]acetamide
@<TRIPOS>ATOM
      1 C1         -0.6687    1.6545   -0.8073 C.3       1 <0>        -0.1753
      2 C2          0.3650    1.3118    0.2674 C.3       1 <0>        -0.1064
      3 H1         -0.0251    1.5971    1.2555 H         1 <0>         0.0921
      4 C3          0.6452   -0.1922    0.2444 C.3       1 <0>        -0.1143
      5 C4          1.1878   -0.5888   -1.1301 C.3       1 <0>        -0.1346
      6 C5          2.4838    0.1757   -1.4068 C.3       1 <0>        -0.1133
      7 C6          2.2037    1.6796   -1.3838 C.3       1 <0>        -0.1098
      8 H2          1.4606    1.9260   -2.1565 H         1 <0>         0.0999
      9 C7          1.6611    2.0763   -0.0093 C.3       1 <0>         0.0431
     10 N1          1.3921    3.5203    0.0128 N.4       1 <0>        -0.5337
     11 C8          1.3958    4.0355    1.3885 C.3       1 <0>        -0.0300
     12 C9          1.2489    5.5351    1.3637 C.2       1 <0>         0.5055
     13 O1          1.1508    6.1174    0.3044 O.2       1 <0>        -0.5426
     14 N2          1.2266    6.2292    2.5188 N.am      1 <0>        -0.8533
     15 C10         3.4998    2.4441   -1.6605 C.3       1 <0>        -0.1714
     16 H3         -1.6005    1.1048   -0.6083 H         1 <0>         0.0885
     17 H4         -0.2786    1.3693   -1.7955 H         1 <0>         0.0822
     18 H5         -0.8701    2.7358   -0.7907 H         1 <0>         0.0503
     19 H6          1.3884   -0.4386    1.0171 H         1 <0>         0.0754
     20 H7         -0.2866   -0.7419    0.4434 H         1 <0>         0.0855
     21 H8          1.3892   -1.6701   -1.1467 H         1 <0>         0.0806
     22 H9          0.4446   -0.3424   -1.9028 H         1 <0>         0.0741
     23 H10         3.2269   -0.0707   -0.6341 H         1 <0>         0.0753
     24 H11         2.8739   -0.1095   -2.3949 H         1 <0>         0.0861
     25 H12         2.4056    1.8704    0.7739 H         1 <0>         0.1351
     26 H13         2.1676    4.0466   -0.5630 H         1 <0>         0.4505
     27 H14         0.5575    3.5941    1.9476 H         1 <0>         0.1557
     28 H15         2.3440    3.7680    1.8777 H         1 <0>         0.1562
     29 H16         1.1194    7.3238    2.5007 H         1 <0>         0.4499
     30 H17         1.3156    5.7011    3.4796 H         1 <0>         0.4354
     31 H18         3.2984    3.5254   -1.6440 H         1 <0>         0.0523
     32 H19         3.8899    2.1589   -2.6487 H         1 <0>         0.0893
     33 H20         4.2429    2.1977   -0.8878 H         1 <0>         0.0739
     34 H21         0.4066    3.7166   -0.4347 H         1 <0>         0.4477
@<TRIPOS>BOND
     1    1    2 1
     2    1   16 1
     3    1   17 1
     4    1   18 1
     5    2    3 1
     6    2    9 1
     7    2    4 1
     8    4    5 1
     9    4   19 1
    10    4   20 1
    11    5    6 1
    12    5   21 1
    13    5   22 1
    14    6    7 1
    15    6   23 1
    16    6   24 1
    17    7    8 1
    18    7    9 1
    19    7   15 1
    20    9   10 1
    21    9   25 1
    22   10   11 1
    23   10   26 1
    24   10   34 1
    25   11   12 1
    26   11   27 1
    27   11   28 1
    28   12   13 2
    29   12   14 am
    30   14   29 1
    31   14   30 1
    32   15   31 1
    33   15   32 1
    34   15   33 1
@<TRIPOS>MOLECULE
ZINC43515777
   33    33     0     0     0
SMALL
USER_CHARGES

@<TRIPOS>ATOM
      1 C1         -0.0312    1.5179   -0.1507 C.3       1 <0>        -0.1797
      2 C2          0.0021   -0.0041    0.0020 C.3       1 <0>         0.0915
      3 H1          0.5740   -0.2675    0.8918 H         1 <0>         0.1685
      4 C3          0.6514   -0.6167   -1.2121 C.2       1 <0>         0.3221
      5 N1          1.9377   -0.7189   -1.2744 N.2       1 <0>        -0.3696
      6 O1          2.5477   -1.2946   -2.4152 O.3       1 <0>        -0.3964
      7 N2         -0.1266   -1.0677   -2.2553 N.pl3     1 <0>        -0.8742
      8 N3         -1.3697   -0.5131    0.1331 N.4       1 <0>        -0.3629
      9 C4         -2.0083    0.1404    1.2920 C.3       1 <0>        -0.0128
     10 C5         -3.5022    0.1137    1.0868 C.3       1 <0>        -0.1481
     11 C6         -4.1490   -1.0825    1.8099 C.3       1 <0>        -0.1313
     12 C7         -3.2994   -2.3620    1.6719 C.3       1 <0>        -0.1403
     13 C8         -2.7331   -2.5286    0.2849 C.3       1 <0>        -0.1314
     14 C9         -1.3227   -1.9043    0.2385 C.3       1 <0>        -0.0529
     15 H2          0.9670    1.8803   -0.3968 H         1 <0>         0.1164
     16 H3         -0.7227    1.7880   -0.9488 H         1 <0>         0.0864
     17 H4         -0.3614    1.9698    0.7846 H         1 <0>         0.1010
     18 H5          3.5131   -1.3278   -2.3704 H         1 <0>         0.4185
     19 H6         -1.0924   -0.9910   -2.2085 H         1 <0>         0.3874
     20 H7          0.2914   -1.4620   -3.0368 H         1 <0>         0.4268
     21 H8         -1.7531   -0.3985    2.2045 H         1 <0>         0.1393
     22 H9         -1.6661    1.1727    1.3664 H         1 <0>         0.1439
     23 H10        -3.9316    1.0381    1.4731 H         1 <0>         0.1120
     24 H11        -3.7142    0.0423    0.0200 H         1 <0>         0.0814
     25 H12        -4.2589   -0.8414    2.8672 H         1 <0>         0.0822
     26 H13        -5.1358   -1.2637    1.3839 H         1 <0>         0.0828
     27 H14        -2.4771   -2.3185    2.3861 H         1 <0>         0.0706
     28 H15        -3.9218   -3.2259    1.9052 H         1 <0>         0.0880
     29 H16        -2.6705   -3.5892    0.0416 H         1 <0>         0.1111
     30 H17        -3.3784   -2.0254   -0.4352 H         1 <0>         0.0873
     31 H18        -0.7851   -2.3069   -0.6200 H         1 <0>         0.1364
     32 H19        -0.7862   -2.1729    1.1485 H         1 <0>         0.1334
     33 H20        -1.8856   -0.2689   -0.6989 H         1 <0>         0.4128
@<TRIPOS>BOND
     1    1    2 1
     2    1   15 1
     3    1   16 1
     4    1   17 1
     5    2    3 1
     6    2    4 1
     7    2    8 1
     8    4    5 2
     9    4    7 1
    10    5    6 1
    11    6   18 1
    12    7   19 1
    13    7   20 1
    14    8   14 1
    15    8    9 1
    16    8   33 1
    17    9   10 1
    18    9   21 1
    19    9   22 1
    20   10   11 1
    21   10   23 1
    22   10   24 1
    23   11   12 1
    24   11   25 1
    25   11   26 1
    26   12   13 1
    27   12   27 1
    28   12   28 1
    29   13   14 1
    30   13   29 1
    31   13   30 1
    32   14   31 1
    33   14   32 1
@<TRIPOS>MOLECULE
ZINC55122484
   34    34     0     0     0
SMALL
USER_CHARGES

@<TRIPOS>ATOM
      1 C1         -0.0187    1.5258    0.0104 C.3       1 <0>        -0.1692
      2 C2          0.0021   -0.0041    0.0020 C.3       1 <0>         0.1111
      3 N1          0.7106   -0.4894    1.1889 N.am      1 <0>        -0.7236
      4 C3          0.8538   -1.8138    1.3937 C.2       1 <0>         0.5160
      5 O1          0.3960   -2.6038    0.5954 O.2       1 <0>        -0.5335
      6 C4          1.5826   -2.3130    2.6146 C.3       1 <0>        -0.0993
      7 H1          2.6052   -1.9357    2.6069 H         1 <0>         0.1092
      8 C5          0.8665   -1.8196    3.8734 C.3       1 <0>        -0.1232
      9 C6          1.6065   -2.3264    5.1129 C.3       1 <0>        -0.1152
     10 C7          1.6272   -3.8562    5.1045 C.3       1 <0>        -0.1438
     11 C8          2.3434   -4.3497    3.8457 C.3       1 <0>         0.0293
     12 H2          3.3660   -3.9724    3.8380 H         1 <0>         0.1435
     13 C9          1.6034   -3.8428    2.6062 C.3       1 <0>        -0.0897
     14 H3          0.5808   -4.2201    2.6139 H         1 <0>         0.1033
     15 C10         2.3195   -4.3362    1.3474 C.3       1 <0>        -0.1840
     16 N2          2.3633   -5.8185    3.8376 N.4       1 <0>        -0.6361
     17 H4          1.0039    1.9031    0.0027 H         1 <0>         0.0638
     18 H5         -0.5459    1.8868   -0.8726 H         1 <0>         0.0801
     19 H6         -0.5289    1.8773    0.9072 H         1 <0>         0.0638
     20 H7         -1.0205   -0.3814    0.0098 H         1 <0>         0.0717
     21 H8          0.5123   -0.3556   -0.8948 H         1 <0>         0.0716
     22 H9          1.0768    0.1425    1.8273 H         1 <0>         0.4029
     23 H10         0.8517   -0.7297    3.8794 H         1 <0>         0.0846
     24 H11        -0.1561   -2.1969    3.8811 H         1 <0>         0.0786
     25 H12         2.6291   -1.9491    5.1052 H         1 <0>         0.0790
     26 H13         1.0963   -1.9749    6.0097 H         1 <0>         0.0916
     27 H14         2.1544   -4.2173    5.9876 H         1 <0>         0.0922
     28 H15         0.6046   -4.2335    5.1122 H         1 <0>         0.0898
     29 H16         3.3421   -3.9590    1.3396 H         1 <0>         0.0666
     30 H17         2.3343   -5.4261    1.3414 H         1 <0>         0.0519
     31 H18         1.7923   -3.9752    0.4643 H         1 <0>         0.1111
     32 H19         1.4167   -6.1677    3.8448 H         1 <0>         0.4339
     33 H20         2.8356   -6.1439    3.0075 H         1 <0>         0.4355
     34 H21         2.8513   -6.1527    4.6551 H         1 <0>         0.4366
@<TRIPOS>BOND
     1    1    2 1
     2    1   17 1
     3    1   18 1
     4    1   19 1
     5    2    3 1
     6    2   20 1
     7    2   21 1
     8    3    4 am
     9    3   22 1
    10    4    5 2
    11    4    6 1
    12    6    7 1
    13    6   13 1
    14    6    8 1
    15    8    9 1
    16    8   23 1
    17    8   24 1
    18    9   10 1
    19    9   25 1
    20    9   26 1
    21   10   11 1
    22   10   27 1
    23   10   28 1
    24   11   12 1
    25   11   13 1
    26   11   16 1
    27   13   14 1
    28   13   15 1
    29   15   29 1
    30   15   30 1
    31   15   31 1
    32   16   32 1
    33   16   33 1
    34   16   34 1
@<TRIPOS>MOLECULE
ZINC58094530
   38    39     0     0     0
SMALL
USER_CHARGES

@<TRIPOS>ATOM
      1 C1         -0.0184    1.5028    0.0103 C.3       1 <0>        -0.1244
      2 C2          0.0021   -0.0041    0.0020 C.ar      1 <0>        -0.0899
      3 C3          0.0057   -0.6860   -1.1975 C.ar      1 <0>        -0.0863
      4 C4          0.0239   -2.0684   -1.2157 C.ar      1 <0>        -0.1665
      5 C5          0.0391   -2.7726   -0.0239 C.ar      1 <0>        -0.0337
      6 C6          0.0360   -2.0947    1.1739 C.ar      1 <0>        -0.1233
      7 C7          0.0230   -0.7057    1.2055 C.ar      1 <0>         0.1803
      8 N1          0.0294   -0.2532    2.5254 N.am      1 <0>        -0.6606
      9 C8          0.0516   -1.2645    3.4098 C.2       1 <0>         0.5298
     10 O1          0.0617   -1.1643    4.6185 O.2       1 <0>        -0.4727
     11 C9          0.0487   -2.5526    2.6142 C.3       1 <0>        -0.0872
     12 H1          0.9532   -3.1228    2.8258 H         1 <0>         0.1327
     13 C10        -1.1966   -3.3863    2.9226 C.3       1 <0>        -0.1310
     14 C11         0.0268   -2.8066   -2.5295 C.3       1 <0>         0.0911
     15 H2         -0.3103   -3.8311   -2.3714 H         1 <0>         0.1494
     16 C12         1.4446   -2.8193   -3.1043 C.3       1 <0>        -0.1086
     17 C13         2.3864   -3.5204   -2.1233 C.3       1 <0>        -0.1520
     18 C14         1.4475   -3.5688   -4.4382 C.3       1 <0>        -0.1729
     19 N2         -0.8775   -2.1335   -3.4714 N.4       1 <0>        -0.6376
     20 H3          1.0042    1.8801    0.0026 H         1 <0>         0.0818
     21 H4         -0.5455    1.8639   -0.8728 H         1 <0>         0.0774
     22 H5         -0.5286    1.8543    0.9071 H         1 <0>         0.0698
     23 H6         -0.0062   -0.1369   -2.1274 H         1 <0>         0.1279
     24 H7          0.0530   -3.8524   -0.0341 H         1 <0>         0.1407
     25 H8          0.0193    0.6839    2.7757 H         1 <0>         0.4195
     26 H9         -1.2180   -4.2614    2.2732 H         1 <0>         0.0759
     27 H10        -1.1703   -3.7072    3.9640 H         1 <0>         0.0794
     28 H11        -2.0888   -2.7842    2.7504 H         1 <0>         0.0625
     29 H12         1.7817   -1.7948   -3.2625 H         1 <0>         0.0957
     30 H13         3.3965   -3.5294   -2.5328 H         1 <0>         0.0767
     31 H14         2.3844   -2.9864   -1.1731 H         1 <0>         0.0704
     32 H15         2.0493   -4.5448   -1.9652 H         1 <0>         0.0677
     33 H16         0.7765   -3.0693   -5.1371 H         1 <0>         0.0524
     34 H17         2.4576   -3.5778   -4.8477 H         1 <0>         0.0863
     35 H18         1.1104   -4.5932   -4.2800 H         1 <0>         0.0746
     36 H19        -0.8756   -2.6278   -4.3510 H         1 <0>         0.4362
     37 H20        -1.8125   -2.1251   -3.0923 H         1 <0>         0.4384
     38 H21        -0.5654   -1.1852   -3.6178 H         1 <0>         0.4304
@<TRIPOS>BOND
     1    1    2 1
     2    1   20 1
     3    1   21 1
     4    1   22 1
     5    2    7 ar
     6    2    3 ar
     7    3    4 ar
     8    3   23 1
     9    4    5 ar
    10    4   14 1
    11    5    6 ar
    12    5   24 1
    13    6   11 1
    14    6    7 ar
    15    7    8 1
    16    8    9 am
    17    8   25 1
    18    9   10 2
    19    9   11 1
    20   11   12 1
    21   11   13 1
    22   13   26 1
    23   13   27 1
    24   13   28 1
    25   14   15 1
    26   14   16 1
    27   14   19 1
    28   16   17 1
    29   16   18 1
    30   16   29 1
    31   17   30 1
    32   17   31 1
    33   17   32 1
    34   18   33 1
    35   18   34 1
    36   18   35 1
    37   19   36 1
    38   19   37 1
    39   19   38 1
@<TRIPOS>MOLECULE
ZINC63058804
   30    31     0     0     0
SMALL
USER_CHARGES

@<TRIPOS>ATOM
      1 C1          2.0798   -1.4657    1.8423 C.3       1 <0>        -0.1280
      2 C2          0.8924   -1.4914    0.9147 C.ar      1 <0>        -0.1077
      3 C3          0.9830   -2.1351   -0.3019 C.ar      1 <0>        -0.0353
      4 C4         -0.1175   -2.1581   -1.1599 C.ar      1 <0>        -0.1520
      5 C5         -1.3048   -1.5288   -0.7813 C.ar      1 <0>        -0.0598
      6 C6         -1.3845   -0.8883    0.4372 C.ar      1 <0>        -0.1412
      7 C7         -0.2902   -0.8733    1.2880 C.ar      1 <0>         0.1607
      8 F1         -0.3754   -0.2490    2.4830 F         1 <0>        -0.1113
      9 C8         -0.0261   -2.8460   -2.4653 C.cat     1 <0>         0.5490
     10 N1         -0.6301   -2.3499   -3.5060 N.pl3     1 <0>        -0.3767
     11 N2         -1.2547   -1.0986   -3.4231 N.pl3     1 <0>        -0.7406
     12 N3          0.7075   -4.0271   -2.5816 N.pl3     1 <0>        -0.6423
     13 C9          0.7981   -4.7088   -3.8752 C.3       1 <0>         0.0146
     14 C10         0.6370   -6.2303   -3.8847 C.3       1 <0>        -0.1670
     15 C11         2.0140   -5.6053   -4.1177 C.3       1 <0>        -0.1594
     16 H1          2.0459   -2.3342    2.5001 H         1 <0>         0.0891
     17 H2          2.9989   -1.4891    1.2567 H         1 <0>         0.0833
     18 H3          2.0535   -0.5553    2.4410 H         1 <0>         0.0835
     19 H4          1.9039   -2.6201   -0.5901 H         1 <0>         0.1495
     20 H5         -2.1593   -1.5434   -1.4417 H         1 <0>         0.1570
     21 H6         -2.3023   -0.4008    0.7310 H         1 <0>         0.1615
     22 H7         -1.8052   -0.7817   -4.1562 H         1 <0>         0.4416
     23 H8         -1.1367   -0.5490   -2.6325 H         1 <0>         0.4345
     24 H9          1.1576   -4.3969   -1.8059 H         1 <0>         0.4408
     25 H10         0.4031   -4.1552   -4.7270 H         1 <0>         0.1369
     26 H11         0.4637   -6.7240   -2.9286 H         1 <0>         0.1134
     27 H12         0.1358   -6.6779   -4.7429 H         1 <0>         0.1214
     28 H13         2.4187   -5.6417   -5.1291 H         1 <0>         0.1229
     29 H14         2.7465   -5.6879   -3.3148 H         1 <0>         0.1137
     30 H15        -0.6477   -2.8465   -4.3391 H         1 <0>         0.4480
@<TRIPOS>BOND
     1    1    2 1
     2    1   16 1
     3    1   17 1
     4    1   18 1
     5    2    7 ar
     6    2    3 ar
     7    3    4 ar
     8    3   19 1
     9    4    5 ar
    10    4    9 1
    11    5    6 ar
    12    5   20 1
    13    6    7 ar
    14    6   21 1
    15    7    8 1
    16    9   10 2
    17    9   12 1
    18   10   11 1
    19   10   30 1
    20   11   22 1
    21   11   23 1
    22   12   13 1
    23   12   24 1
    24   13   15 1
    25   13   14 1
    26   13   25 1
    27   14   15 1
    28   14   26 1
    29   14   27 1
    30   15   28 1
    31   15   29 1
@<TRIPOS>MOLECULE
ZINC29334484
   32    32     0     0     0
SMALL
USER_CHARGES
2-[2-[(3R)-3-methyl-1-piperidyl]-2-oxo-ethyl]isothiourea
@<TRIPOS>ATOM
      1 C1          3.0162   -0.7896    2.1551 C.3       1 <0>        -0.1520
      2 C2          2.2203   -0.1685    1.0054 C.3       1 <0>        -0.1056
      3 H1          2.6975   -0.4292    0.0492 H         1 <0>         0.0763
      4 C3          2.1936    1.3532    1.1662 C.3       1 <0>        -0.1222
      5 C4          1.4257    1.9778   -0.0009 C.3       1 <0>        -0.1393
      6 C5         -0.0178    1.4650    0.0101 C.3       1 <0>         0.0986
      7 N1          0.0021   -0.0041    0.0020 N.am      1 <0>        -0.5938
      8 C6          0.7858   -0.7056    1.0279 C.3       1 <0>         0.1109
      9 C7         -0.6851   -0.6950   -0.9290 C.2       1 <0>         0.5359
     10 O1         -0.6607   -1.9076   -0.9250 O.2       1 <0>        -0.5136
     11 C8         -1.4839    0.0391   -1.9750 C.3       1 <0>        -0.2049
     12 S1         -2.2862   -1.1572   -3.0711 S.3       1 <0>         0.1603
     13 C9         -3.1255   -0.0574   -4.1623 C.cat     1 <0>         0.4636
     14 N2         -3.0226    1.2320   -3.9949 N.pl3     1 <0>        -0.7915
     15 N3         -3.8893   -0.5587   -5.1908 N.pl3     1 <0>        -0.8000
     16 H2          4.0461   -0.4037    2.1385 H         1 <0>         0.0652
     17 H3          3.0326   -1.8835    2.0407 H         1 <0>         0.0618
     18 H4          2.5420   -0.5281    3.1126 H         1 <0>         0.0609
     19 H5          1.6965    1.6132    2.1124 H         1 <0>         0.0705
     20 H6          3.2236    1.7391    1.1750 H         1 <0>         0.0750
     21 H7          1.4281    3.0729    0.1028 H         1 <0>         0.0851
     22 H8          1.9084    1.6982   -0.9490 H         1 <0>         0.0698
     23 H9         -0.5283    1.8261    0.9151 H         1 <0>         0.0853
     24 H10        -0.5454    1.8357   -0.8811 H         1 <0>         0.0780
     25 H11         0.7951   -1.7851    0.8168 H         1 <0>         0.1008
     26 H12         0.3439   -0.5298    2.0198 H         1 <0>         0.0804
     27 H13        -2.2496    0.6578   -1.4842 H         1 <0>         0.1431
     28 H14        -0.8136    0.6832   -2.5631 H         1 <0>         0.1428
     29 H15        -3.5466    1.9186   -4.6761 H         1 <0>         0.4603
     30 H16        -4.4133    0.1279   -5.8720 H         1 <0>         0.4573
     31 H17        -3.9761   -1.6461   -5.3320 H         1 <0>         0.4762
     32 H18        -2.4119    1.6328   -3.1725 H         1 <0>         0.4650
@<TRIPOS>BOND
     1    1    2 1
     2    1   16 1
     3    1   17 1
     4    1   18 1
     5    2    3 1
     6    2    8 1
     7    2    4 1
     8    4    5 1
     9    4   19 1
    10    4   20 1
    11    5    6 1
    12    5   21 1
    13    5   22 1
    14    6    7 1
    15    6   23 1
    16    6   24 1
    17    7    8 1
    18    7    9 am
    19    8   25 1
    20    8   26 1
    21    9   10 2
    22    9   11 1
    23   11   12 1
    24   11   27 1
    25   11   28 1
    26   12   13 1
    27   13   14 2
    28   13   15 1
    29   14   29 1
    30   14   32 1
    31   15   30 1
    32   15   31 1
@<TRIPOS>MOLECULE
ZINC37256107
   39    40     0     0     0
SMALL
USER_CHARGES

@<TRIPOS>ATOM
      1 C1         -0.0187    1.5258    0.0104 C.3       1 <0>        -0.1507
      2 C2          0.0021   -0.0041    0.0020 C.3       1 <0>        -0.0874
      3 H1         -1.0205   -0.3814    0.0098 H         1 <0>         0.0747
      4 C3          0.7182   -0.4975   -1.2568 C.3       1 <0>        -0.1212
      5 C4          0.7390   -2.0273   -1.2652 C.3       1 <0>        -0.1191
      6 C5          1.4790   -2.5342   -0.0257 C.3       1 <0>        -0.1290
      7 C6          0.7628   -2.0407    1.2331 C.3       1 <0>         0.1410
      8 H2         -0.2598   -2.4180    1.2409 H         1 <0>         0.0975
      9 C7          0.7421   -0.5109    1.2415 C.3       1 <0>        -0.1230
     10 N1          1.4714   -2.5260    2.4200 N.am      1 <0>        -0.6947
     11 C8          1.2068   -3.7544    2.9074 C.2       1 <0>         0.5052
     12 O1          0.3822   -4.4580    2.3635 O.2       1 <0>        -0.5205
     13 C9          1.9357   -4.2536    4.1283 C.3       1 <0>         0.0048
     14 H3          2.0307   -3.4495    4.8580 H         1 <0>         0.1680
     15 C10         3.3347   -4.7692    3.7303 C.3       1 <0>        -0.1285
     16 C11         3.5177   -6.0166    4.6344 C.3       1 <0>         0.0958
     17 H4          3.8591   -5.7310    5.6294 H         1 <0>         0.1036
     18 C12         2.0762   -6.5817    4.6834 C.3       1 <0>        -0.0438
     19 N2          1.2019   -5.3860    4.7226 N.4       1 <0>        -0.4970
     20 O2          4.4159   -6.9541    4.0375 O.3       1 <0>        -0.5337
     21 H5          1.0039    1.9031    0.0027 H         1 <0>         0.0573
     22 H6         -0.5459    1.8868   -0.8726 H         1 <0>         0.0619
     23 H7         -0.5289    1.8773    0.9072 H         1 <0>         0.0567
     24 H8          0.1910   -0.1364   -2.1398 H         1 <0>         0.0711
     25 H9          1.7408   -0.1202   -1.2645 H         1 <0>         0.0662
     26 H10        -0.2836   -2.4046   -1.2575 H         1 <0>         0.0667
     27 H11         1.2492   -2.3788   -2.1620 H         1 <0>         0.0722
     28 H12         1.4937   -3.6240   -0.0317 H         1 <0>         0.0665
     29 H13         2.5015   -2.1569   -0.0334 H         1 <0>         0.0689
     30 H14         1.7647   -0.1336    1.2338 H         1 <0>         0.0737
     31 H15         0.2319   -0.1594    2.1383 H         1 <0>         0.0722
     32 H16         2.1309   -1.9633    2.8550 H         1 <0>         0.4103
     33 H17         3.3568   -5.0499    2.6773 H         1 <0>         0.1147
     34 H18         4.0972   -4.0210    3.9469 H         1 <0>         0.1304
     35 H19         1.8706   -7.1748    3.7923 H         1 <0>         0.1446
     36 H20         1.9347   -7.1831    5.5815 H         1 <0>         0.1463
     37 H21         0.9606   -5.1703    5.6782 H         1 <0>         0.4370
     38 H22         4.5617   -7.7506    4.5662 H         1 <0>         0.4020
     39 H23         0.3613   -5.5615    4.1927 H         1 <0>         0.4392
@<TRIPOS>BOND
     1    1    2 1
     2    1   21 1
     3    1   22 1
     4    1   23 1
     5    2    3 1
     6    2    9 1
     7    2    4 1
     8    4    5 1
     9    4   24 1
    10    4   25 1
    11    5    6 1
    12    5   26 1
    13    5   27 1
    14    6    7 1
    15    6   28 1
    16    6   29 1
    17    7    8 1
    18    7    9 1
    19    7   10 1
    20    9   30 1
    21    9   31 1
    22   10   11 am
    23   10   32 1
    24   11   12 2
    25   11   13 1
    26   13   14 1
    27   13   19 1
    28   13   15 1
    29   15   16 1
    30   15   33 1
    31   15   34 1
    32   16   17 1
    33   16   18 1
    34   16   20 1
    35   18   19 1
    36   18   35 1
    37   18   36 1
    38   19   37 1
    39   19   39 1
    40   20   38 1
@<TRIPOS>MOLECULE
ZINC44802317
   32    32     0     0     0
SMALL
USER_CHARGES

@<TRIPOS>ATOM
      1 C1         -0.0187    1.5258    0.0104 C.3       1 <0>        -0.1685
      2 C2          0.0021   -0.0041    0.0020 C.3       1 <0>        -0.1418
      3 H1         -1.0205   -0.3814    0.0098 H         1 <0>         0.1226
      4 C3          0.7421   -0.5109    1.2415 C.3       1 <0>         0.0085
      5 N1         -0.0103   -0.1391    2.4472 N.4       1 <0>        -0.6369
      6 C4          0.7074   -0.4901   -1.2379 C.2       1 <0>         0.5223
      7 O1          1.7039   -1.1744   -1.1398 O.2       1 <0>        -0.5291
      8 N2          0.2309   -0.1642   -2.4557 N.am      1 <0>        -0.7128
      9 C5          0.9167   -0.6367   -3.6611 C.3       1 <0>         0.1413
     10 C6          0.4196   -2.0414   -4.0161 C.3       1 <0>        -0.1659
     11 C7          1.0826   -2.4946   -5.3194 C.3       1 <0>         0.0607
     12 O2          0.7871   -1.5548   -6.3545 O.3       1 <0>        -0.3769
     13 C8          1.2698   -0.2343   -6.0989 C.3       1 <0>         0.0619
     14 C9          0.6143    0.3098   -4.8269 C.3       1 <0>        -0.1650
     15 H2          1.0039    1.9031    0.0027 H         1 <0>         0.0815
     16 H3         -0.5459    1.8868   -0.8726 H         1 <0>         0.0883
     17 H4         -0.5289    1.8773    0.9072 H         1 <0>         0.0690
     18 H5          0.8346   -1.5958    1.1912 H         1 <0>         0.1456
     19 H6          1.7350   -0.0630    1.2804 H         1 <0>         0.1436
     20 H7         -0.0960    0.8652    2.4938 H         1 <0>         0.4330
     21 H8         -0.9295   -0.5537    2.4112 H         1 <0>         0.4355
     22 H9         -0.5660    0.3831   -2.5342 H         1 <0>         0.4047
     23 H10         1.9916   -0.6632   -3.4823 H         1 <0>         0.0955
     24 H11         0.6801   -2.7332   -3.2151 H         1 <0>         0.0786
     25 H12        -0.6626   -2.0230   -4.1451 H         1 <0>         0.0763
     26 H13         2.1618   -2.5517   -5.1775 H         1 <0>         0.0565
     27 H14         0.7002   -3.4761   -5.5996 H         1 <0>         0.1023
     28 H15         2.3515   -0.2618   -5.9672 H         1 <0>         0.0571
     29 H16         1.0223    0.4125   -6.9406 H         1 <0>         0.1049
     30 H17        -0.4640    0.3757   -4.9723 H         1 <0>         0.0808
     31 H18         1.0141    1.2994   -4.6058 H         1 <0>         0.0830
     32 H19         0.4777   -0.4733    3.2646 H         1 <0>         0.4434
@<TRIPOS>BOND
     1    1    2 1
     2    1   15 1
     3    1   16 1
     4    1   17 1
     5    2    3 1
     6    2    4 1
     7    2    6 1
     8    4    5 1
     9    4   18 1
    10    4   19 1
    11    5   20 1
    12    5   21 1
    13    5   32 1
    14    6    7 2
    15    6    8 am
    16    8    9 1
    17    8   22 1
    18    9   14 1
    19    9   10 1
    20    9   23 1
    21   10   11 1
    22   10   24 1
    23   10   25 1
    24   11   12 1
    25   11   26 1
    26   11   27 1
    27   12   13 1
    28   13   14 1
    29   13   28 1
    30   13   29 1
    31   14   30 1
    32   14   31 1
@<TRIPOS>MOLECULE
ZINC55125996
   38    38     0     0     0
SMALL
USER_CHARGES

@<TRIPOS>ATOM
      1 C1         -0.4162    1.5001    0.2843 C.3       1 <0>        -0.1621
      2 C2         -0.3517   -0.0282    0.2514 C.3       1 <0>        -0.0619
      3 H1         -1.3374   -0.4382    0.4714 H         1 <0>         0.0973
      4 C3          0.0944   -0.4901   -1.1374 C.3       1 <0>        -0.1553
      5 C4          1.4779    0.0855   -1.4462 C.3       1 <0>         0.0216
      6 H2          1.4320    1.1743   -1.4228 H         1 <0>         0.1429
      7 C5          2.4798   -0.4053   -0.3993 C.3       1 <0>        -0.1422
      8 C6          2.0337    0.0565    0.9895 C.3       1 <0>        -0.1198
      9 C7          0.6502   -0.5190    1.2983 C.3       1 <0>        -0.1138
     10 H3          0.3324   -0.1900    2.2877 H         1 <0>         0.1118
     11 C8          0.7137   -2.0243    1.2659 C.2       1 <0>         0.5164
     12 O1          0.1020   -2.6390    0.4180 O.2       1 <0>        -0.5437
     13 N1          1.4502   -2.6876    2.1793 N.am      1 <0>        -0.6010
     14 C9          2.0865   -1.9566    3.2779 C.3       1 <0>         0.0594
     15 C10         1.6144   -4.1395    2.0734 C.3       1 <0>         0.1087
     16 C11         2.8495   -4.4526    1.2264 C.3       1 <0>         0.0637
     17 O2          4.0202   -3.9879    1.9013 O.3       1 <0>        -0.5708
     18 N2          1.9062   -0.3579   -2.7796 N.4       1 <0>        -0.6358
     19 H4          0.5695    1.9102    0.0642 H         1 <0>         0.0579
     20 H5         -1.1300    1.8498   -0.4616 H         1 <0>         0.0669
     21 H6         -0.7340    1.8292    1.2736 H         1 <0>         0.0703
     22 H7          0.1403   -1.5788   -1.1608 H         1 <0>         0.1210
     23 H8         -0.6194   -0.1404   -1.8832 H         1 <0>         0.0861
     24 H9          2.5257   -1.4941   -0.4227 H         1 <0>         0.0842
     25 H10         3.4655    0.0047   -0.6193 H         1 <0>         0.0921
     26 H11         2.7475   -0.2931    1.7353 H         1 <0>         0.1007
     27 H12         1.9878    1.1453    1.0129 H         1 <0>         0.0931
     28 H13         1.4200   -1.9444    4.1403 H         1 <0>         0.0614
     29 H14         3.0212   -2.4480    3.5480 H         1 <0>         0.0885
     30 H15         2.2916   -0.9335    2.9628 H         1 <0>         0.0816
     31 H16         1.7396   -4.5646    3.0693 H         1 <0>         0.0911
     32 H17         0.7316   -4.5716    1.6022 H         1 <0>         0.1026
     33 H18         2.9217   -5.5294    1.0733 H         1 <0>         0.0612
     34 H19         2.7642   -3.9533    0.2612 H         1 <0>         0.0400
     35 H20         4.8430   -4.1533    1.4208 H         1 <0>         0.3823
     36 H21         1.2455   -0.0342   -3.4701 H         1 <0>         0.4365
     37 H22         2.8186    0.0216   -2.9833 H         1 <0>         0.4342
     38 H23         1.9487   -1.3658   -2.8013 H         1 <0>         0.4328
@<TRIPOS>BOND
     1    1    2 1
     2    1   19 1
     3    1   20 1
     4    1   21 1
     5    2    3 1
     6    2    9 1
     7    2    4 1
     8    4    5 1
     9    4   22 1
    10    4   23 1
    11    5    6 1
    12    5    7 1
    13    5   18 1
    14    7    8 1
    15    7   24 1
    16    7   25 1
    17    8    9 1
    18    8   26 1
    19    8   27 1
    20    9   10 1
    21    9   11 1
    22   11   12 2
    23   11   13 am
    24   13   14 1
    25   13   15 1
    26   14   28 1
    27   14   29 1
    28   14   30 1
    29   15   16 1
    30   15   31 1
    31   15   32 1
    32   16   17 1
    33   16   33 1
    34   16   34 1
    35   17   35 1
    36   18   36 1
    37   18   37 1
    38   18   38 1
@<TRIPOS>MOLECULE
ZINC62533228
   30    31     0     0     0
SMALL
USER_CHARGES

@<TRIPOS>ATOM
      1 C1         -0.0184    1.5028    0.0103 C.3       1 <0>        -0.1278
      2 C2          0.0021   -0.0041    0.0020 C.ar      1 <0>        -0.0489
      3 C3          0.0057   -0.6873   -1.2005 C.ar      1 <0>        -0.1112
      4 C4          0.0286   -2.0718   -1.2076 C.ar      1 <0>         0.1053
      5 C5          0.0287   -2.7742   -0.0034 C.ar      1 <0>         0.0653
      6 C6          0.0295   -2.0848    1.1966 C.ar      1 <0>        -0.0930
      7 C7          0.0229   -0.7004    1.1972 C.ar      1 <0>        -0.0337
      8 Cl1         0.0336    0.1643    2.7025 Cl        1 <0>        -0.0388
      9 O1          0.0082   -4.1340   -0.0165 O.3       1 <0>        -0.2893
     10 C8          0.6645   -4.7822   -1.1083 C.3       1 <0>         0.0879
     11 H1          0.3637   -5.8293   -1.1425 H         1 <0>         0.1641
     12 C9          0.2825   -4.1077   -2.4017 C.2       1 <0>         0.4935
     13 O2          0.1938   -4.7553   -3.4234 O.2       1 <0>        -0.4870
     14 N1          0.0393   -2.7803   -2.4175 N.am      1 <0>        -0.6543
     15 C10         2.1799   -4.6937   -0.9167 C.3       1 <0>        -0.1817
     16 C11         2.5838   -5.4872    0.3275 C.3       1 <0>        -0.0029
     17 N2          4.0388   -5.4022    0.5115 N.4       1 <0>        -0.6367
     18 H2          1.0042    1.8801    0.0026 H         1 <0>         0.0843
     19 H3         -0.5455    1.8639   -0.8728 H         1 <0>         0.0792
     20 H4         -0.5286    1.8543    0.9071 H         1 <0>         0.0822
     21 H5         -0.0097   -0.1418   -2.1325 H         1 <0>         0.1485
     22 H6          0.0396   -2.6260    2.1312 H         1 <0>         0.1519
     23 H7         -0.1264   -2.3218   -3.2560 H         1 <0>         0.4253
     24 H8          2.6815   -5.1086   -1.7910 H         1 <0>         0.1148
     25 H9          2.4701   -3.6504   -0.7923 H         1 <0>         0.0997
     26 H10         2.0822   -5.0723    1.2018 H         1 <0>         0.1439
     27 H11         2.2937   -6.5305    0.2032 H         1 <0>         0.1435
     28 H12         4.5032   -5.7863   -0.2978 H         1 <0>         0.4368
     29 H13         4.3074   -4.4364    0.6266 H         1 <0>         0.4363
     30 H14         4.3052   -5.9255    1.3320 H         1 <0>         0.4429
@<TRIPOS>BOND
     1    1    2 1
     2    1   18 1
     3    1   19 1
     4    1   20 1
     5    2    7 ar
     6    2    3 ar
     7    3    4 ar
     8    3   21 1
     9    4   14 1
    10    4    5 ar
    11    5    6 ar
    12    5    9 1
    13    6    7 ar
    14    6   22 1
    15    7    8 1
    16    9   10 1
    17   10   11 1
    18   10   12 1
    19   10   15 1
    20   12   13 2
    21   12   14 am
    22   14   23 1
    23   15   16 1
    24   15   24 1
    25   15   25 1
    26   16   17 1
    27   16   26 1
    28   16   27 1
    29   17   28 1
    30   17   29 1
    31   17   30 1
@<TRIPOS>MOLECULE
ZINC35776334
   33    34     0     0     0
SMALL
USER_CHARGES

@<TRIPOS>ATOM
      1 C1         -0.1541    1.5330    0.1380 C.3       1 <0>        -0.1660
      2 C2         -0.0713    0.0071    0.0629 C.3       1 <0>         0.1373
      3 H1          0.3267   -0.2916   -0.9068 H         1 <0>         0.0843
      4 C3         -1.4674   -0.5958    0.2559 C.3       1 <0>         0.0487
      5 O1         -1.3550   -2.0164    0.3702 O.3       1 <0>        -0.3737
      6 C4         -0.5983   -2.4545    1.5012 C.3       1 <0>         0.0441
      7 C5          0.8424   -1.9468    1.3720 C.3       1 <0>         0.1110
      8 N1          0.8040   -0.4951    1.1339 N.pl3     1 <0>        -0.6754
      9 C6          1.5684    0.3730    1.8959 C.ar      1 <0>         0.4662
     10 C7          2.8533    0.7091    1.4734 C.ar      1 <0>        -0.1658
     11 C8          3.6056    1.5673    2.2292 C.ar      1 <0>        -0.0067
     12 C9          3.0506    2.0810    3.4106 C.ar      1 <0>        -0.2292
     13 C10         1.7581    1.7016    3.7728 C.ar      1 <0>         0.1922
     14 N2          1.0656    0.8772    3.0143 N.ar      1 <0>        -0.4879
     15 C11         3.8240    3.0100    4.2593 C.cat     1 <0>         0.6098
     16 N3          3.2875    3.4923    5.3798 N.pl3     1 <0>        -0.7607
     17 N4          5.0582    3.3658    3.9046 N.pl3     1 <0>        -0.7614
     18 H2          0.8318    1.9599   -0.0464 H         1 <0>         0.0584
     19 H3         -0.8539    1.8964   -0.6145 H         1 <0>         0.0831
     20 H4         -0.4991    1.8298    1.1285 H         1 <0>         0.0648
     21 H5         -1.9161   -0.1920    1.1635 H         1 <0>         0.0584
     22 H6         -2.0928   -0.3479   -0.6017 H         1 <0>         0.1068
     23 H7         -1.0438   -2.0574    2.4133 H         1 <0>         0.0577
     24 H8         -0.5983   -3.5439    1.5395 H         1 <0>         0.1078
     25 H9          1.3885   -2.1537    2.2924 H         1 <0>         0.0804
     26 H10         1.3326   -2.4428    0.5343 H         1 <0>         0.0766
     27 H11         3.2518    0.2959    0.5586 H         1 <0>         0.1615
     28 H12         4.6041    1.8425    1.9229 H         1 <0>         0.1510
     29 H13         1.3201    2.0905    4.6802 H         1 <0>         0.1677
     30 H14         2.3891    3.2333    5.6380 H         1 <0>         0.4445
     31 H15         5.4487    3.0147    3.0890 H         1 <0>         0.4438
     32 H16         5.5662    3.9759    4.4620 H         1 <0>         0.4351
     33 H17         3.7954    4.1024    5.9372 H         1 <0>         0.4356
@<TRIPOS>BOND
     1    1    2 1
     2    1   18 1
     3    1   19 1
     4    1   20 1
     5    2    3 1
     6    2    8 1
     7    2    4 1
     8    4    5 1
     9    4   21 1
    10    4   22 1
    11    5    6 1
    12    6    7 1
    13    6   23 1
    14    6   24 1
    15    7    8 1
    16    7   25 1
    17    7   26 1
    18    8    9 1
    19    9   14 ar
    20    9   10 ar
    21   10   11 ar
    22   10   27 1
    23   11   12 ar
    24   11   28 1
    25   12   13 ar
    26   12   15 1
    27   13   14 ar
    28   13   29 1
    29   15   16 2
    30   15   17 1
    31   16   30 1
    32   16   33 1
    33   17   31 1
    34   17   32 1
@<TRIPOS>MOLECULE
ZINC38061077
   39    40     0     0     0
SMALL
USER_CHARGES

@<TRIPOS>ATOM
      1 C1         -0.0165    1.5302    0.0148 C.3       1 <0>        -0.1575
      2 C2          1.4237    2.0521    0.0019 C.3       1 <0>         0.1319
      3 N1          2.1293    1.4649   -1.1452 N.am      1 <0>        -0.6382
      4 C3          2.1294    0.0040   -1.3021 C.3       1 <0>         0.1149
      5 C4          0.6813   -0.4950   -1.2747 C.3       1 <0>        -0.1601
      6 C5         -0.0004   -0.0001    0.0030 C.3       1 <0>         0.0259
      7 N2         -1.3794   -0.5044    0.0488 N.4       1 <0>        -0.5040
      8 C6         -1.3617   -1.9692    0.1582 C.3       1 <0>         0.0011
      9 C7         -2.7979   -2.4945    0.2059 C.3       1 <0>         0.0231
     10 H1         -3.3221   -2.2050   -0.7049 H         1 <0>         0.0942
     11 C8         -2.7809   -4.0213    0.3233 C.3       1 <0>         0.0345
     12 O1         -4.1218   -4.4950    0.4796 O.3       1 <0>        -0.3636
     13 C9         -4.7949   -3.9444    1.6157 C.3       1 <0>         0.0171
     14 C10        -4.8119   -2.4176    1.4983 C.3       1 <0>         0.0300
     15 O2         -3.4714   -1.9427    1.3412 O.3       1 <0>        -0.3895
     16 C11         2.7640    2.2513   -2.0369 C.2       1 <0>         0.7103
     17 O3          2.6771    3.4610   -1.9507 O.2       1 <0>        -0.5757
     18 N3          3.4950    1.6969   -3.0242 N.am      1 <0>        -0.8630
     19 H2         -0.5229    1.8817    0.9137 H         1 <0>         0.1042
     20 H3         -0.5436    1.8952   -0.8667 H         1 <0>         0.0938
     21 H4          1.4179    3.1382   -0.0896 H         1 <0>         0.1167
     22 H5          1.9251    1.7639    0.9259 H         1 <0>         0.0815
     23 H6          2.5893   -0.2612   -2.2541 H         1 <0>         0.0989
     24 H7          2.6884   -0.4513   -0.4845 H         1 <0>         0.0859
     25 H8          0.1476   -0.1108   -2.1440 H         1 <0>         0.0950
     26 H9          0.6716   -1.5848   -1.2935 H         1 <0>         0.1019
     27 H10         0.5482   -0.3642    0.8717 H         1 <0>         0.1444
     28 H11        -1.8542   -0.1131    0.8484 H         1 <0>         0.4373
     29 H12        -0.8487   -2.3920   -0.7056 H         1 <0>         0.1486
     30 H13        -0.8383   -2.2592    1.0693 H         1 <0>         0.1427
     31 H14        -2.3455   -4.4512   -0.5788 H         1 <0>         0.1158
     32 H15        -2.1880   -4.3134    1.1900 H         1 <0>         0.0736
     33 H16        -5.8181   -4.3186    1.6497 H         1 <0>         0.1189
     34 H17        -4.2697   -4.2340    2.5259 H         1 <0>         0.0709
     35 H18        -5.4048   -2.1255    0.6316 H         1 <0>         0.0727
     36 H19        -5.2473   -1.9877    2.4004 H         1 <0>         0.1214
     37 H20         3.5062    0.7335   -3.1369 H         1 <0>         0.3961
     38 H21         4.0098    2.2612   -3.6220 H         1 <0>         0.4220
     39 H22        -1.8638   -0.2360   -0.7946 H         1 <0>         0.4264
@<TRIPOS>BOND
     1    1    6 1
     2    1    2 1
     3    1   19 1
     4    1   20 1
     5    2    3 1
     6    2   21 1
     7    2   22 1
     8    3    4 1
     9    3   16 am
    10    4    5 1
    11    4   23 1
    12    4   24 1
    13    5    6 1
    14    5   25 1
    15    5   26 1
    16    6    7 1
    17    6   27 1
    18    7    8 1
    19    7   28 1
    20    7   39 1
    21    8    9 1
    22    8   29 1
    23    8   30 1
    24    9   10 1
    25    9   15 1
    26    9   11 1
    27   11   12 1
    28   11   31 1
    29   11   32 1
    30   12   13 1
    31   13   14 1
    32   13   33 1
    33   13   34 1
    34   14   15 1
    35   14   35 1
    36   14   36 1
    37   16   17 2
    38   16   18 am
    39   18   37 1
    40   18   38 1
@<TRIPOS>MOLECULE
ZINC50461002
   32    33     0     0     0
SMALL
USER_CHARGES

@<TRIPOS>ATOM
      1 C1         -2.0062    0.5533   -0.0886 C.3       1 <0>        -0.0742
      2 C2         -0.8632   -0.4279   -0.0445 C.2       1 <0>         0.0922
      3 C3         -0.0787   -0.8244   -1.1374 C.2       1 <0>        -0.0361
      4 C4          0.8412   -1.7156   -0.6876 C.2       1 <0>         0.1011
      5 N1          0.6405   -1.8738    0.6463 N.pl3     1 <0>        -0.3638
      6 N2         -0.4295   -1.0512    1.0210 N.2       1 <0>        -0.2790
      7 C5          1.4098   -2.7466    1.5365 C.3       1 <0>         0.0979
      8 C6          1.8935   -2.4047   -1.5176 C.3       1 <0>        -0.0937
      9 N3         -0.2202   -0.3776   -2.4648 N.am      1 <0>        -0.6278
     10 C7          0.1324    0.8811   -2.7933 C.2       1 <0>         0.5375
     11 O1          0.6451    1.6033   -1.9644 O.2       1 <0>        -0.5118
     12 C8         -0.1104    1.3912   -4.1904 C.3       1 <0>        -0.1666
     13 H1         -0.0038    0.6532   -4.9855 H         1 <0>         0.1514
     14 C9         -1.1738    2.4762   -4.3715 C.3       1 <0>        -0.1214
     15 C10         0.3101    2.8293   -4.5004 C.3       1 <0>        -0.0471
     16 H2          0.7623    3.4064   -3.6938 H         1 <0>         0.1934
     17 N4          0.8259    3.1099   -5.8469 N.4       1 <0>        -0.6062
     18 H3         -1.6164    1.5686   -0.0154 H         1 <0>         0.0789
     19 H4         -2.5473    0.4387   -1.0278 H         1 <0>         0.0724
     20 H5         -2.6814    0.3622    0.7455 H         1 <0>         0.0797
     21 H6          2.2546   -2.1934    1.9469 H         1 <0>         0.0817
     22 H7          0.7708   -3.0901    2.3499 H         1 <0>         0.0970
     23 H8          1.7766   -3.6059    0.9749 H         1 <0>         0.0920
     24 H9          2.8008   -1.8007   -1.5284 H         1 <0>         0.0844
     25 H10         2.1128   -3.3821   -1.0878 H         1 <0>         0.0793
     26 H11         1.5281   -2.5297   -2.5368 H         1 <0>         0.0832
     27 H12        -0.5713   -0.9756   -3.1430 H         1 <0>         0.4080
     28 H13        -1.7666    2.4523   -5.2858 H         1 <0>         0.1366
     29 H14        -1.6978    2.8210   -3.4801 H         1 <0>         0.1417
     30 H15         0.1194    2.8853   -6.5313 H         1 <0>         0.4341
     31 H16         1.0649    4.0876   -5.9185 H         1 <0>         0.4462
     32 H17         1.6479    2.5495   -6.0157 H         1 <0>         0.4393
@<TRIPOS>BOND
     1    1    2 1
     2    1   18 1
     3    1   19 1
     4    1   20 1
     5    2    6 2
     6    2    3 1
     7    3    4 2
     8    3    9 1
     9    4    5 1
    10    4    8 1
    11    5    6 1
    12    5    7 1
    13    7   21 1
    14    7   22 1
    15    7   23 1
    16    8   24 1
    17    8   25 1
    18    8   26 1
    19    9   10 am
    20    9   27 1
    21   10   11 2
    22   10   12 1
    23   12   13 1
    24   12   15 1
    25   12   14 1
    26   14   15 1
    27   14   28 1
    28   14   29 1
    29   15   16 1
    30   15   17 1
    31   17   30 1
    32   17   31 1
    33   17   32 1
@<TRIPOS>MOLECULE
ZINC61404934
   32    33     0     0     0
SMALL
USER_CHARGES

@<TRIPOS>ATOM
      1 C1         -0.9068    1.2113    0.3524 C.3       1 <0>        -0.1196
      2 C2         -0.5643   -0.2502    0.2191 C.2       1 <0>         0.2651
      3 C3         -0.1643   -0.8931   -0.9557 C.2       1 <0>        -0.2903
      4 C4          0.0504   -2.2049   -0.6603 C.2       1 <0>         0.4982
      5 N1         -0.2075   -2.3741    0.6566 N.pl3     1 <0>        -0.3469
      6 N2         -0.5851   -1.1330    1.1846 N.pl3     1 <0>        -0.3912
      7 C5         -0.1052   -3.6322    1.4003 C.3       1 <0>         0.0792
      8 N3          0.4601   -3.1925   -1.5517 N.pl3     1 <0>        -0.5300
      9 N4          1.2929   -4.1900   -1.1305 N.3       1 <0>        -0.6071
     10 C6          0.0000   -0.2493   -2.3083 C.3       1 <0>         0.1945
     11 N5          1.3730    0.2412   -2.4521 N.am      1 <0>        -0.3494
     12 C7          2.3094   -0.5730   -2.9754 C.2       1 <0>         0.4819
     13 O1          2.0165   -1.7051   -3.3255 O.2       1 <0>        -0.5418
     14 C8          3.6333   -0.1033   -3.1152 C.2       1 <0>        -0.1889
     15 C9          3.9033    1.1721   -2.7071 C.2       1 <0>        -0.0660
     16 C10         2.8529    1.9378   -2.1747 C.2       1 <0>         0.0489
     17 N6          1.6520    1.4381   -2.0809 N.2       1 <0>        -0.2288
     18 H1         -0.0067    1.7745    0.5989 H         1 <0>         0.1205
     19 H2         -1.3169    1.5758   -0.5895 H         1 <0>         0.1218
     20 H3         -1.6447    1.3409    1.1442 H         1 <0>         0.1026
     21 H4          0.9240   -3.7777    1.7282 H         1 <0>         0.1000
     22 H5         -0.7617   -3.5947    2.2697 H         1 <0>         0.1064
     23 H6         -0.4019   -4.4601    0.7564 H         1 <0>         0.1303
     24 H7          1.4354   -4.8738   -1.8587 H         1 <0>         0.3868
     25 H8         -0.2072   -0.9828   -3.0874 H         1 <0>         0.1196
     26 H9         -0.6953    0.5850   -2.4005 H         1 <0>         0.1267
     27 H10         4.4071   -0.7316   -3.5308 H         1 <0>         0.1644
     28 H11         4.8993    1.5812   -2.7913 H         1 <0>         0.1581
     29 H12         3.0402    2.9490   -1.8448 H         1 <0>         0.1947
     30 H13         2.1729   -3.8150   -0.8095 H         1 <0>         0.3492
     31 H14        -0.8236   -0.9581    2.1084 H         1 <0>         0.4706
     32 H15         0.1543   -3.1723   -2.4720 H         1 <0>         0.4406
@<TRIPOS>BOND
     1    1    2 1
     2    1   18 1
     3    1   19 1
     4    1   20 1
     5    2    6 2
     6    2    3 1
     7    3    4 2
     8    3   10 1
     9    4    5 1
    10    4    8 1
    11    5    6 1
    12    5    7 1
    13    6   31 1
    14    7   21 1
    15    7   22 1
    16    7   23 1
    17    8    9 1
    18    8   32 1
    19    9   24 1
    20    9   30 1
    21   10   11 1
    22   10   25 1
    23   10   26 1
    24   11   17 1
    25   11   12 am
    26   12   13 2
    27   12   14 1
    28   14   15 2
    29   14   27 1
    30   15   16 1
    31   15   28 1
    32   16   17 2
    33   16   29 1
@<TRIPOS>MOLECULE
ZINC62940937
   36    37     0     0     0
SMALL
USER_CHARGES

@<TRIPOS>ATOM
      1 C1         -0.0189    1.5414    0.0105 C.3       1 <0>        -0.1430
      2 C2          1.4893    1.9111   -0.0019 C.3       1 <0>        -0.1341
      3 C3          2.0791    0.7674   -0.8684 C.3       1 <0>         0.0112
      4 H1          1.9086    1.0172   -1.9156 H         1 <0>         0.1270
      5 C4          3.5818    0.6865   -0.6375 C.3       1 <0>         0.0416
      6 N1          4.1184   -0.6145   -1.1361 N.3       1 <0>        -0.5376
      7 C5          3.5139   -1.0126   -2.3822 C.3       1 <0>         0.0479
      8 C6          2.3350   -1.9439   -2.0991 C.3       1 <0>        -0.1508
      9 C7          1.0865   -1.2213   -1.7771 C.3       1 <0>         0.0110
     10 N2          1.3107   -0.4016   -0.5574 N.4       1 <0>        -0.3740
     11 C8          0.0021   -0.0041    0.0020 C.3       1 <0>        -0.0127
     12 C9          5.5822   -0.5707   -1.2513 C.3       1 <0>         0.1177
     13 C10         6.1069   -1.9583   -1.5167 C.2       1 <0>         0.3594
     14 N3          5.2870   -2.9526   -1.6071 N.2       1 <0>        -0.4076
     15 O1          5.7800   -4.2563   -1.8565 O.3       1 <0>        -0.4263
     16 N4          7.4604   -2.1664   -1.6630 N.pl3     1 <0>        -0.8679
     17 H2         -0.5000    1.9154    0.9142 H         1 <0>         0.1135
     18 H3         -0.5172    1.9251   -0.8798 H         1 <0>         0.0980
     19 H4          1.6505    2.8812   -0.4722 H         1 <0>         0.1158
     20 H5          1.9049    1.8928    1.0056 H         1 <0>         0.1017
     21 H6          4.0716    1.5040   -1.1666 H         1 <0>         0.0882
     22 H7          3.7871    0.7751    0.4293 H         1 <0>         0.1061
     23 H8          3.1599   -0.1290   -2.9133 H         1 <0>         0.0473
     24 H9          4.2505   -1.5339   -2.9935 H         1 <0>         0.0996
     25 H10         2.1625   -2.5671   -2.9766 H         1 <0>         0.1108
     26 H11         2.5925   -2.5894   -1.2594 H         1 <0>         0.1048
     27 H12         0.8119   -0.5785   -2.6135 H         1 <0>         0.1243
     28 H13         0.2878   -1.9394   -1.5914 H         1 <0>         0.1326
     29 H14        -0.1015   -0.3850    1.0180 H         1 <0>         0.1326
     30 H15        -0.8040   -0.3855   -0.6248 H         1 <0>         0.1327
     31 H16         5.8624    0.0872   -2.0739 H         1 <0>         0.0755
     32 H17         6.0087   -0.1926   -0.3222 H         1 <0>         0.1125
     33 H18         5.0920   -4.9339   -1.9073 H         1 <0>         0.4007
     34 H19         8.0760   -1.4199   -1.5951 H         1 <0>         0.3994
     35 H20         7.7981   -3.0595   -1.8338 H         1 <0>         0.4136
     36 H21         1.8021   -0.9445    0.1367 H         1 <0>         0.4287
@<TRIPOS>BOND
     1    1   11 1
     2    1    2 1
     3    1   17 1
     4    1   18 1
     5    2    3 1
     6    2   19 1
     7    2   20 1
     8    3    4 1
     9    3   10 1
    10    3    5 1
    11    5    6 1
    12    5   21 1
    13    5   22 1
    14    6    7 1
    15    6   12 1
    16    7    8 1
    17    7   23 1
    18    7   24 1
    19    8    9 1
    20    8   25 1
    21    8   26 1
    22    9   10 1
    23    9   27 1
    24    9   28 1
    25   10   11 1
    26   10   36 1
    27   11   29 1
    28   11   30 1
    29   12   13 1
    30   12   31 1
    31   12   32 1
    32   13   14 2
    33   13   16 1
    34   14   15 1
    35   15   33 1
    36   16   34 1
    37   16   35 1
@<TRIPOS>MOLECULE
ZINC16036785
   47    50     0     0     0
SMALL
USER_CHARGES
(4-hydroxy-3-iodo-5-methoxy-phenyl)methylBLAHone
@<TRIPOS>ATOM
      1 C1         -4.4729   -2.6997   -3.1273 C.3       1 <0>         0.0200
      2 O1         -4.5557   -3.3304   -1.8477 O.3       1 <0>        -0.2928
      3 C2         -4.5303   -2.5189   -0.7566 C.ar      1 <0>         0.1201
      4 C3         -4.4341   -1.1455   -0.9148 C.ar      1 <0>        -0.1639
      5 C4         -4.4032   -0.3222    0.1953 C.ar      1 <0>        -0.1196
      6 C5         -4.4794   -0.8648    1.4646 C.ar      1 <0>        -0.0878
      7 C6         -4.5812   -2.2341    1.6294 C.ar      1 <0>        -0.1011
      8 C7         -4.6070   -3.0654    0.5206 C.ar      1 <0>         0.1454
      9 O2         -4.7066   -4.4123    0.6807 O.3       1 <0>        -0.4697
     10 I1         -4.6971   -3.0518    3.5548 I         1 <0>         0.0168
     11 C8         -4.2923    1.1706    0.0212 C.3       1 <0>         0.0473
     12 C9         -2.2030    1.1402    1.2401 C.3       1 <0>        -0.0066
     13 C10        -0.7483    1.5890    1.2532 C.3       1 <0>        -0.1210
     14 H1         -0.2642    1.1636    2.1323 H         1 <0>         0.1422
     15 C11        -0.0127    1.0858    0.0080 C.3       1 <0>        -0.1303
     16 C12        -0.7727    1.6029   -1.2188 C.3       1 <0>        -0.0623
     17 H2         -0.2626    1.3093   -2.1362 H         1 <0>         0.1505
     18 C13        -2.1936    1.0158   -1.1796 C.3       1 <0>        -0.0020
     19 C14        -0.9007    3.1069   -1.1273 C.2       1 <0>         0.0980
     20 C15        -1.0212    3.7954   -2.2932 C.2       1 <0>        -0.1875
     21 C16        -1.2056    5.1823   -2.2848 C.2       1 <0>        -0.0244
     22 C17        -1.2826    5.8287   -1.0859 C.2       1 <0>        -0.2159
     23 C18        -1.1522    5.0895    0.0988 C.2       1 <0>         0.5059
     24 O3         -1.2648    5.6513    1.1766 O.2       1 <0>        -0.5238
     25 N1         -0.9009    3.7572    0.0606 N.am      1 <0>        -0.5057
     26 C19        -0.6214    3.1004    1.3376 C.3       1 <0>         0.0785
     27 H3         -3.5386   -2.1428   -3.1982 H         1 <0>         0.0585
     28 H4         -4.5038   -3.4586   -3.9091 H         1 <0>         0.1143
     29 H5         -5.3133   -2.0165   -3.2507 H         1 <0>         0.0620
     30 H6         -4.3792   -0.7186   -1.9053 H         1 <0>         0.1468
     31 H7         -4.4590   -0.2180    2.3292 H         1 <0>         0.1434
     32 H8         -5.6163   -4.7398    0.7010 H         1 <0>         0.4048
     33 H9         -4.7969    1.6712    0.8477 H         1 <0>         0.1414
     34 H10        -4.7590    1.4623   -0.9196 H         1 <0>         0.1416
     35 H11        -2.7195    1.5781    2.0942 H         1 <0>         0.1346
     36 H12        -2.2422    0.0538    1.3184 H         1 <0>         0.1415
     37 H13         0.0021   -0.0041    0.0020 H         1 <0>         0.1029
     38 H14         1.0074    1.4697    0.0003 H         1 <0>         0.1052
     39 H15        -2.7360    1.3029   -2.0804 H         1 <0>         0.1372
     40 H16        -2.1417   -0.0708   -1.1112 H         1 <0>         0.1438
     41 H17        -0.9744    3.2673   -3.2341 H         1 <0>         0.1539
     42 H18        -1.2859    5.7315   -3.2112 H         1 <0>         0.1483
     43 H19        -1.4421    6.8963   -1.0493 H         1 <0>         0.1601
     44 H20        -1.3213    3.4720    2.0861 H         1 <0>         0.1112
     45 H21         0.3927    3.3525    1.6477 H         1 <0>         0.1075
     46 N2         -2.8747    1.5875    0.0043 N.4       1 <0>        -0.3952
     47 H22        -2.8290    2.6120   -0.0475 H         1 <0>         0.4261
@<TRIPOS>BOND
     1    1    2 1
     2    1   27 1
     3    1   28 1
     4    1   29 1
     5    2    3 1
     6    3    8 ar
     7    3    4 ar
     8    4    5 ar
     9    4   30 1
    10    5    6 ar
    11    5   11 1
    12    6    7 ar
    13    6   31 1
    14    7    8 ar
    15    7   10 1
    16    8    9 1
    17    9   32 1
    18   11   33 1
    19   11   34 1
    20   11   46 1
    21   12   13 1
    22   12   35 1
    23   12   36 1
    24   12   46 1
    25   13   14 1
    26   13   26 1
    27   13   15 1
    28   15   16 1
    29   15   37 1
    30   15   38 1
    31   16   17 1
    32   16   18 1
    33   16   19 1
    34   18   39 1
    35   18   40 1
    36   18   46 1
    37   19   25 1
    38   19   20 2
    39   20   21 1
    40   20   41 1
    41   21   22 2
    42   21   42 1
    43   22   23 1
    44   22   43 1
    45   23   24 2
    46   23   25 am
    47   25   26 1
    48   26   44 1
    49   26   45 1
    50   46   47 1
@<TRIPOS>MOLECULE
ZINC35414101
   55    59     0     0     0
SMALL
USER_CHARGES

@<TRIPOS>ATOM
      1 C1         -0.0164    1.3553    0.0095 C.2       1 <0>        -0.1680
      2 C2          1.1724    2.0448    0.0018 C.2       1 <0>        -0.1119
      3 C3          2.3540    1.3188   -0.0133 C.2       1 <0>        -0.1729
      4 S1          1.7508   -0.3616   -0.0166 S.3       1 <0>         0.1044
      5 C4          0.0021   -0.0041    0.0020 C.2       1 <0>        -0.1749
      6 C5          3.7339    1.8033   -0.0243 C.2       1 <0>         0.0276
      7 C6          4.7608    0.9213   -0.0388 C.2       1 <0>        -0.0966
      8 C7          4.4711   -0.5489   -0.0496 C.3       1 <0>        -0.0880
      9 C8          5.6956   -1.4237   -0.2260 C.3       1 <0>        -0.1174
     10 C9          6.9576   -0.8347    0.4013 C.3       1 <0>        -0.1068
     11 C10         7.2757    0.4800   -0.3128 C.3       1 <0>        -0.1063
     12 H1          7.4465    0.3313   -1.3790 H         1 <0>         0.1248
     13 C11         6.0886    1.4002   -0.0493 C.2       1 <0>         0.2022
     14 N1          6.5447    2.5866    0.1684 N.2       1 <0>        -0.2758
     15 N2          7.9370    2.6329    0.3079 N.am      1 <0>        -0.4561
     16 C12         8.4406    1.2290    0.3567 C.3       1 <0>         0.2131
     17 H2          8.5845    0.8909    1.3829 H         1 <0>         0.1240
     18 C13         9.7096    1.0795   -0.4423 C.2       1 <0>        -0.1681
     19 C14        10.7539    0.2402   -0.2365 C.2       1 <0>        -0.1192
     20 C15        11.8255    0.2770   -1.1089 C.2       1 <0>        -0.1577
     21 C16        11.8003    1.1513   -2.1444 C.2       1 <0>        -0.1501
     22 S2         10.2242    1.9563   -1.9098 S.3       1 <0>         0.0400
     23 C17         8.6915    3.7470    0.3856 C.2       1 <0>         0.5337
     24 O1          9.8955    3.6571    0.5056 O.2       1 <0>        -0.4995
     25 C18         8.0397    5.1043    0.3234 C.3       1 <0>        -0.0182
     26 N3          9.0690    6.1471    0.4284 N.4       1 <0>        -0.3753
     27 C19         8.4272    7.4701    0.4743 C.3       1 <0>        -0.0220
     28 C20         9.4822    8.5176    0.8354 C.3       1 <0>         0.0847
     29 N4         10.6425    8.3771   -0.0409 N.am      1 <0>        -0.7248
     30 C21        10.8758    7.2710   -0.7564 C.2       1 <0>         0.5097
     31 O2         11.8745    7.2219   -1.4429 O.2       1 <0>        -0.4858
     32 C22         9.9511    6.0870   -0.7437 C.3       1 <0>        -0.0298
     33 H3         -0.9557    1.8879    0.0258 H         1 <0>         0.1378
     34 H4          1.1862    3.1247    0.0072 H         1 <0>         0.1380
     35 H5         -0.8299   -0.6927    0.0066 H         1 <0>         0.1883
     36 H6          3.9337    2.8646   -0.0209 H         1 <0>         0.1467
     37 H7          3.9889   -0.8138    0.8913 H         1 <0>         0.0918
     38 H8          3.7756   -0.7589   -0.8623 H         1 <0>         0.0933
     39 H9          5.4998   -2.3947    0.2290 H         1 <0>         0.0838
     40 H10         5.8705   -1.5692   -1.2920 H         1 <0>         0.0715
     41 H11         6.7879   -0.6459    1.4613 H         1 <0>         0.0777
     42 H12         7.7881   -1.5300    0.2792 H         1 <0>         0.0859
     43 H13        10.7490   -0.4468    0.5968 H         1 <0>         0.1369
     44 H14        12.6703   -0.3808   -0.9674 H         1 <0>         0.1417
     45 H15        12.5399    1.3155   -2.9141 H         1 <0>         0.1908
     46 H16         7.5104    5.2102   -0.6236 H         1 <0>         0.1650
     47 H17         7.3337    5.2064    1.1476 H         1 <0>         0.1719
     48 H18         8.0000    7.7030   -0.5011 H         1 <0>         0.1444
     49 H19         7.6407    7.4686    1.2289 H         1 <0>         0.1580
     50 H20         9.0578    9.5146    0.7172 H         1 <0>         0.1313
     51 H21         9.7917    8.3777    1.8711 H         1 <0>         0.1008
     52 H22        11.2685    9.1152   -0.1069 H         1 <0>         0.4270
     53 H23        10.5390    5.1698   -0.7069 H         1 <0>         0.1820
     54 H24         9.3471    6.0905   -1.6511 H         1 <0>         0.1606
     55 H25         9.6112    6.0034    1.2671 H         1 <0>         0.4358
@<TRIPOS>BOND
     1    1    5 2
     2    1    2 1
     3    1   33 1
     4    2    3 2
     5    2   34 1
     6    3    4 1
     7    3    6 1
     8    4    5 1
     9    5   35 1
    10    6    7 2
    11    6   36 1
    12    7   13 1
    13    7    8 1
    14    8    9 1
    15    8   37 1
    16    8   38 1
    17    9   10 1
    18    9   39 1
    19    9   40 1
    20   10   11 1
    21   10   41 1
    22   10   42 1
    23   11   12 1
    24   11   16 1
    25   11   13 1
    26   13   14 2
    27   14   15 1
    28   15   16 1
    29   15   23 am
    30   16   17 1
    31   16   18 1
    32   18   22 1
    33   18   19 2
    34   19   20 1
    35   19   43 1
    36   20   21 2
    37   20   44 1
    38   21   22 1
    39   21   45 1
    40   23   24 2
    41   23   25 1
    42   25   26 1
    43   25   46 1
    44   25   47 1
    45   26   32 1
    46   26   27 1
    47   26   55 1
    48   27   28 1
    49   27   48 1
    50   27   49 1
    51   28   29 1
    52   28   50 1
    53   28   51 1
    54   29   30 am
    55   29   52 1
    56   30   31 2
    57   30   32 1
    58   32   53 1
    59   32   54 1
@<TRIPOS>MOLECULE
ZINC02108600
   57    62     0     0     0
SMALL
USER_CHARGES

@<TRIPOS>ATOM
      1 C1         -0.0184    1.5028    0.0103 C.3       1 <0>        -0.1256
      2 C2          0.0021   -0.0041    0.0020 C.ar      1 <0>        -0.0467
      3 C3          0.0057   -0.6875   -1.2003 C.ar      1 <0>        -0.0934
      4 C4          0.0244   -2.0685   -1.2116 C.ar      1 <0>        -0.0861
      5 C5          0.0396   -2.7711   -0.0144 C.ar      1 <0>         0.1085
      6 C6          0.0359   -2.0824    1.1917 C.ar      1 <0>        -0.0653
      7 C7          0.0229   -0.7002    1.1963 C.ar      1 <0>        -0.0811
      8 Br1         0.0559   -3.0343    2.8255 Br        1 <0>        -0.0279
      9 N1          0.0581   -4.1732   -0.0228 N.am      1 <0>        -0.5228
     10 C8         -1.0577   -4.9117   -0.0273 C.2       1 <0>         0.5260
     11 O1         -2.1879   -4.4732   -0.0272 O.2       1 <0>        -0.4194
     12 C9         -0.6893   -6.3782   -0.0333 C.3       1 <0>        -0.1332
     13 H1         -1.1019   -6.9164    0.8200 H         1 <0>         0.1870
     14 C10        -1.1009   -7.0031   -1.3792 C.3       1 <0>         0.0493
     15 H2         -1.3661   -8.0553   -1.2763 H         1 <0>         0.1755
     16 C11        -2.2464   -6.1772   -1.9930 C.3       1 <0>        -0.1683
     17 C12        -1.5615   -5.1152   -2.8754 C.3       1 <0>        -0.1449
     18 C13        -0.0492   -5.3652   -2.7062 C.3       1 <0>        -0.0291
     19 N2          0.0750   -6.8053   -2.2799 N.4       1 <0>        -0.3846
     20 C14         1.2450   -6.9737   -1.4022 C.3       1 <0>         0.0963
     21 C15         0.8637   -6.3575   -0.0350 C.3       1 <0>        -0.1101
     22 H3          1.2931   -6.8954    0.8102 H         1 <0>         0.1863
     23 C16         1.1931   -4.8818   -0.0326 C.2       1 <0>         0.5147
     24 O2          2.3113   -4.4137   -0.0363 O.2       1 <0>        -0.3991
     25 C17         1.6234   -8.4212   -1.2592 C.ar      1 <0>        -0.1884
     26 C18         0.9564   -9.5333   -0.7961 C.ar      1 <0>        -0.0530
     27 C19         1.5869  -10.7648   -0.7869 C.ar      1 <0>        -0.0799
     28 C20         2.8876  -10.8755   -1.2437 C.ar      1 <0>        -0.0524
     29 C21         3.5595   -9.7644   -1.7086 C.ar      1 <0>        -0.0774
     30 C22         2.9322   -8.5207   -1.7214 C.ar      1 <0>         0.1582
     31 N3          3.3946   -7.2697   -2.1349 N.am      1 <0>        -0.6375
     32 C23         2.4647   -6.3080   -1.9812 C.2       1 <0>         0.5267
     33 O3          2.5864   -5.1329   -2.2556 O.2       1 <0>        -0.4325
     34 C24         4.9766   -9.8961   -2.2041 C.3       1 <0>        -0.1275
     35 C25         0.8578  -11.9827   -0.2808 C.3       1 <0>        -0.1225
     36 H4          1.0042    1.8801    0.0026 H         1 <0>         0.0848
     37 H5         -0.5455    1.8639   -0.8728 H         1 <0>         0.0787
     38 H6         -0.5286    1.8543    0.9071 H         1 <0>         0.0781
     39 H7         -0.0065   -0.1407   -2.1315 H         1 <0>         0.1456
     40 H8          0.0269   -2.6013   -2.1510 H         1 <0>         0.1310
     41 H9          0.0248   -0.1637    2.1336 H         1 <0>         0.1485
     42 H10        -2.8880   -6.8154   -2.6005 H         1 <0>         0.1159
     43 H11        -2.8279   -5.6960   -1.2065 H         1 <0>         0.1493
     44 H12        -1.8520   -5.2449   -3.9179 H         1 <0>         0.1130
     45 H13        -1.8201   -4.1137   -2.5316 H         1 <0>         0.1151
     46 H14         0.4685   -5.2074   -3.6524 H         1 <0>         0.1455
     47 H15         0.3589   -4.7095   -1.9370 H         1 <0>         0.1332
     48 H16        -0.0592   -9.4441   -0.4397 H         1 <0>         0.1380
     49 H17         3.3797  -11.8368   -1.2360 H         1 <0>         0.1487
     50 H18         4.2826   -7.1118   -2.4918 H         1 <0>         0.4356
     51 H19         4.9693  -10.1137   -3.2722 H         1 <0>         0.0840
     52 H20         5.5117   -8.9632   -2.0271 H         1 <0>         0.0686
     53 H21         5.4738  -10.7068   -1.6716 H         1 <0>         0.0857
     54 H22         0.3334  -12.4619   -1.1075 H         1 <0>         0.0818
     55 H23         1.5744  -12.6825    0.1494 H         1 <0>         0.0790
     56 H24         0.1383  -11.6847    0.4819 H         1 <0>         0.0752
     57 H25         0.0753   -7.4434   -3.0615 H         1 <0>         0.4445
@<TRIPOS>BOND
     1    1    2 1
     2    1   36 1
     3    1   37 1
     4    1   38 1
     5    2    7 ar
     6    2    3 ar
     7    3    4 ar
     8    3   39 1
     9    4    5 ar
    10    4   40 1
    11    5    6 ar
    12    5    9 1
    13    6    7 ar
    14    6    8 1
    15    7   41 1
    16    9   23 am
    17    9   10 am
    18   10   11 2
    19   10   12 1
    20   12   13 1
    21   12   21 1
    22   12   14 1
    23   14   15 1
    24   14   19 1
    25   14   16 1
    26   16   17 1
    27   16   42 1
    28   16   43 1
    29   17   18 1
    30   17   44 1
    31   17   45 1
    32   18   19 1
    33   18   46 1
    34   18   47 1
    35   19   20 1
    36   19   57 1
    37   20   32 1
    38   20   21 1
    39   20   25 1
    40   21   22 1
    41   21   23 1
    42   23   24 2
    43   25   30 ar
    44   25   26 ar
    45   26   27 ar
    46   26   48 1
    47   27   28 ar
    48   27   35 1
    49   28   29 ar
    50   28   49 1
    51   29   30 ar
    52   29   34 1
    53   30   31 1
    54   31   32 am
    55   31   50 1
    56   32   33 2
    57   34   51 1
    58   34   52 1
    59   34   53 1
    60   35   54 1
    61   35   55 1
    62   35   56 1
@<TRIPOS>MOLECULE
ZINC63295174
   62    66     0     0     0
SMALL
USER_CHARGES

@<TRIPOS>ATOM
      1 C1         -0.0194    1.3451    0.0145 C.ar      1 <0>        -0.1531
      2 C2          1.1623    2.0989    0.0107 C.ar      1 <0>         0.0578
      3 C3          2.3871    1.5318    0.0002 C.ar      1 <0>        -0.2100
      4 C4          2.5265    0.1176   -0.0077 C.ar      1 <0>         0.3335
      5 N1          3.5888   -0.6549   -0.0388 N.pl3     1 <0>        -0.5804
      6 C5          3.1533   -2.0468    0.0454 C.3       1 <0>         0.0736
      7 H1          3.4781   -2.4939    0.9849 H         1 <0>         0.1774
      8 C6          3.6509   -2.8744   -1.1454 C.3       1 <0>         0.1390
      9 N2          2.8561   -4.1112   -1.1992 N.am      1 <0>        -0.6343
     10 C7          1.3994   -4.0563   -1.3621 C.3       1 <0>         0.1092
     11 C8          0.7886   -3.2385   -0.2092 C.3       1 <0>        -0.1045
     12 C9          1.6363   -1.9997   -0.0294 C.2       1 <0>         0.0706
     13 C10         1.2913   -0.7044   -0.0106 C.ar      1 <0>        -0.1653
     14 C11        -0.0008   -0.0065    0.0048 C.ar      1 <0>        -0.0077
     15 C12         3.4721   -5.3057   -1.0985 C.2       1 <0>         0.7090
     16 O1          4.6860   -5.3623   -1.0582 O.2       1 <0>        -0.5618
     17 N3          2.7425   -6.4376   -1.0424 N.am      1 <0>        -0.7387
     18 C13         3.4046   -7.7257   -0.8219 C.3       1 <0>         0.1483
     19 C14         2.3571   -8.8406   -0.8012 C.3       1 <0>        -0.1534
     20 C15         3.0382  -10.1657   -0.5743 C.2       1 <0>         0.5192
     21 O2          4.2428  -10.2135   -0.4423 O.2       1 <0>        -0.5326
     22 N4          2.3086  -11.2975   -0.5183 N.am      1 <0>        -0.6058
     23 C16         0.8488  -11.2553   -0.6827 C.3       1 <0>         0.0888
     24 C17         0.4563  -12.2049   -1.8213 C.3       1 <0>         0.1307
     25 N5          1.1064  -13.5034   -1.5952 N.pl3     1 <0>        -0.6727
     26 C18         2.5662  -13.5455   -1.4307 C.3       1 <0>         0.1315
     27 C19         2.9593  -12.5967   -0.2977 C.3       1 <0>         0.0945
     28 C20         0.3494  -14.6778   -1.5370 C.ar      1 <0>         0.1306
     29 C21         0.1066  -15.4071   -2.6930 C.ar      1 <0>        -0.0958
     30 C22        -0.6412  -16.5672   -2.6324 C.ar      1 <0>        -0.1227
     31 C23        -1.1487  -17.0029   -1.4222 C.ar      1 <0>        -0.0904
     32 C24        -0.9101  -16.2797   -0.2679 C.ar      1 <0>        -0.1503
     33 C25        -0.1573  -15.1210   -0.3200 C.ar      1 <0>         0.0899
     34 F1          0.0810  -14.4176    0.8086 F         1 <0>        -0.1360
     35 H2         -0.9699    1.8576    0.0301 H         1 <0>         0.1586
     36 H3          1.0899    3.1765    0.0159 H         1 <0>         0.1618
     37 H4          3.2675    2.1574   -0.0024 H         1 <0>         0.1614
     38 H5          3.5179   -2.3099   -2.0683 H         1 <0>         0.0963
     39 H6          4.7046   -3.1186   -1.0102 H         1 <0>         0.1335
     40 H7          1.1572   -3.5816   -2.3130 H         1 <0>         0.0940
     41 H8          0.9931   -5.0676   -1.3459 H         1 <0>         0.1092
     42 H9         -0.2365   -2.9591   -0.4526 H         1 <0>         0.1250
     43 H10         0.8087   -3.8205    0.7122 H         1 <0>         0.1257
     44 H11        -0.9245   -0.5661    0.0084 H         1 <0>         0.1614
     45 H12         1.7790   -6.3993   -1.1480 H         1 <0>         0.3963
     46 H13         4.1164   -7.9108   -1.6264 H         1 <0>         0.0835
     47 H14         3.9318   -7.7046    0.1319 H         1 <0>         0.0814
     48 H15         1.6453   -8.6555    0.0034 H         1 <0>         0.1013
     49 H16         1.8299   -8.8616   -1.7550 H         1 <0>         0.1024
     50 H17         0.3672  -11.5740    0.2418 H         1 <0>         0.0773
     51 H18         0.5376  -10.2402   -0.9292 H         1 <0>         0.0892
     52 H19        -0.6259  -12.3346   -1.8328 H         1 <0>         0.0836
     53 H20         0.7877  -11.7908   -2.7736 H         1 <0>         0.0596
     54 H21         2.8774  -14.5607   -1.1843 H         1 <0>         0.0845
     55 H22         3.0478  -13.2269   -2.3552 H         1 <0>         0.0604
     56 H23         4.0416  -12.4671   -0.2900 H         1 <0>         0.1013
     57 H24         2.6314  -13.0130    0.6548 H         1 <0>         0.0735
     58 H25         0.5018  -15.0677   -3.6391 H         1 <0>         0.1317
     59 H26        -0.8299  -17.1345   -3.5318 H         1 <0>         0.1320
     60 H27        -1.7332  -17.9100   -1.3785 H         1 <0>         0.1348
     61 H28        -1.3082  -16.6226    0.6756 H         1 <0>         0.1363
     62 H29         4.5078   -0.3519   -0.1062 H         1 <0>         0.4560
@<TRIPOS>BOND
     1    1   14 ar
     2    1    2 ar
     3    1   35 1
     4    2    3 ar
     5    2   36 1
     6    3    4 ar
     7    3   37 1
     8    4   13 ar
     9    4    5 2
    10    5    6 1
    11    5   62 1
    12    6    7 1
    13    6   12 1
    14    6    8 1
    15    8    9 1
    16    8   38 1
    17    8   39 1
    18    9   10 1
    19    9   15 am
    20   10   11 1
    21   10   40 1
    22   10   41 1
    23   11   12 1
    24   11   42 1
    25   11   43 1
    26   12   13 2
    27   13   14 ar
    28   14   44 1
    29   15   16 2
    30   15   17 am
    31   17   18 1
    32   17   45 1
    33   18   19 1
    34   18   46 1
    35   18   47 1
    36   19   20 1
    37   19   48 1
    38   19   49 1
    39   20   21 2
    40   20   22 am
    41   22   27 1
    42   22   23 1
    43   23   24 1
    44   23   50 1
    45   23   51 1
    46   24   25 1
    47   24   52 1
    48   24   53 1
    49   25   26 1
    50   25   28 1
    51   26   27 1
    52   26   54 1
    53   26   55 1
    54   27   56 1
    55   27   57 1
    56   28   33 ar
    57   28   29 ar
    58   29   30 ar
    59   29   58 1
    60   30   31 ar
    61   30   59 1
    62   31   32 ar
    63   31   60 1
    64   32   33 ar
    65   32   61 1
    66   33   34 1
@<TRIPOS>MOLECULE
ZINC64491705
   52    56     0     0     0
SMALL
USER_CHARGES

@<TRIPOS>ATOM
      1 C1         -0.0184    1.5028    0.0103 C.3       1 <0>        -0.1164
      2 C2          0.0021   -0.0041    0.0020 C.ar      1 <0>        -0.0860
      3 C3          0.0056   -0.6798   -1.2049 C.ar      1 <0>        -0.0816
      4 C4          0.0165   -2.0628   -1.2034 C.ar      1 <0>        -0.0767
      5 C5          0.0273   -2.7464   -0.0050 C.ar      1 <0>        -0.0733
      6 C6          0.0388   -2.0841    1.2222 C.ar      1 <0>        -0.1274
      7 C7          0.0227   -0.6901    1.1966 C.ar      1 <0>        -0.0827
      8 C8          0.0928   -2.9871    2.4271 C.3       1 <0>         0.0765
      9 H1         -0.5342   -2.5641    3.2119 H         1 <0>         0.1340
     10 N1         -0.3706   -4.3636    2.1351 N.3       1 <0>        -0.5541
     11 S1          0.0224   -4.4787    0.3921 S.3       1 <0>         0.0598
     12 C9          1.5143   -3.0509    2.9235 C.2       1 <0>         0.5029
     13 O1          2.2133   -4.0008    2.6407 O.2       1 <0>        -0.5086
     14 N2          2.0087   -2.0524    3.6817 N.am      1 <0>        -0.6088
     15 C10         1.1714   -0.8981    4.0372 C.3       1 <0>         0.0834
     16 C11         1.1601   -0.7527    5.5640 C.3       1 <0>         0.0950
     17 N3          2.5461   -0.7988    6.0504 N.am      1 <0>        -0.5922
     18 C12         3.3835   -1.9530    5.6948 C.3       1 <0>         0.0737
     19 C13         3.3931   -2.1012    4.1727 C.3       1 <0>         0.0946
     20 C14         3.0406    0.1997    6.8086 C.2       1 <0>         0.5289
     21 O2          2.3402    1.1474    7.0952 O.2       1 <0>        -0.4941
     22 C15         4.4639    0.1387    7.3002 C.3       1 <0>         0.0647
     23 H2          5.1506    0.0825    6.4555 H         1 <0>         0.2031
     24 C16         4.6519   -1.0582    8.2053 C.2       1 <0>         0.0323
     25 C17         5.0228   -0.5637    9.4083 C.ar      1 <0>        -0.1378
     26 C18         5.3497   -1.2037   10.6881 C.ar      1 <0>        -0.0107
     27 C19         5.6943   -0.4268   11.7412 C.ar      1 <0>        -0.0703
     28 C20         5.7466    0.9714   11.6398 C.ar      1 <0>         0.0610
     29 C21         5.4600    1.6306   10.4975 C.ar      1 <0>        -0.1864
     30 C22         5.0856    0.9132    9.3278 C.ar      1 <0>         0.3412
     31 N4          4.7665    1.3169    8.1204 N.pl3     1 <0>        -0.5499
     32 Cl1         6.0811   -1.1797   13.2568 Cl        1 <0>        -0.0065
     33 H3          1.0042    1.8801    0.0026 H         1 <0>         0.0726
     34 H4         -0.5455    1.8639   -0.8728 H         1 <0>         0.0743
     35 H5         -0.5286    1.8543    0.9071 H         1 <0>         0.0681
     36 H6         -0.0005   -0.1342   -2.1370 H         1 <0>         0.1405
     37 H7          0.0162   -2.6058   -2.1370 H         1 <0>         0.1389
     38 H8          0.0226   -0.1405    2.1263 H         1 <0>         0.1251
     39 H9          0.1517   -5.0419    2.6691 H         1 <0>         0.3772
     40 H10         1.5830    0.0050    3.5867 H         1 <0>         0.0883
     41 H11         0.1551   -1.0588    3.6775 H         1 <0>         0.1101
     42 H12         0.7080    0.2008    5.8373 H         1 <0>         0.1181
     43 H13         0.5902   -1.5704    6.0052 H         1 <0>         0.0932
     44 H14         4.3998   -1.7923    6.0545 H         1 <0>         0.0962
     45 H15         2.9719   -2.8562    6.1453 H         1 <0>         0.0999
     46 H16         3.8436   -3.0562    3.9025 H         1 <0>         0.1187
     47 H17         3.9665   -1.2856    3.7321 H         1 <0>         0.0808
     48 H18         4.5169   -2.0974    7.9441 H         1 <0>         0.2185
     49 H19         5.3153   -2.2785   10.7880 H         1 <0>         0.1774
     50 H20         6.0274    1.5438   12.5116 H         1 <0>         0.1752
     51 H21         5.5151    2.7089   10.4715 H         1 <0>         0.1757
     52 H22         4.7355    2.2387    7.8203 H         1 <0>         0.4637
@<TRIPOS>BOND
     1    1    2 1
     2    1   33 1
     3    1   34 1
     4    1   35 1
     5    2    7 ar
     6    2    3 ar
     7    3    4 ar
     8    3   36 1
     9    4    5 ar
    10    4   37 1
    11    5   11 1
    12    5    6 ar
    13    6    7 ar
    14    6    8 1
    15    7   38 1
    16    8    9 1
    17    8   10 1
    18    8   12 1
    19   10   11 1
    20   10   39 1
    21   12   13 2
    22   12   14 am
    23   14   19 1
    24   14   15 1
    25   15   16 1
    26   15   40 1
    27   15   41 1
    28   16   17 1
    29   16   42 1
    30   16   43 1
    31   17   18 1
    32   17   20 am
    33   18   19 1
    34   18   44 1
    35   18   45 1
    36   19   46 1
    37   19   47 1
    38   20   21 2
    39   20   22 1
    40   22   23 1
    41   22   31 1
    42   22   24 1
    43   24   25 2
    44   24   48 1
    45   25   30 ar
    46   25   26 ar
    47   26   27 ar
    48   26   49 1
    49   27   28 ar
    50   27   32 1
    51   28   29 ar
    52   28   50 1
    53   29   30 ar
    54   29   51 1
    55   30   31 2
    56   31   52 1
@<TRIPOS>MOLECULE
ZINC19499318
   67    70     0     0     0
SMALL
USER_CHARGES
N-[4-[(1S)-1-hydroxy-2-[(4S)-4-hydroxy-6,7-dimethyl-spiro[chroman-2,4'-piperidine]-1'-yl]ethyl]phenyl]propanamide
@<TRIPOS>ATOM
      1 C1          3.3459    2.8590   -2.5526 C.3       1 <0>        -0.1433
      2 C2          2.4889    1.9921   -1.6280 C.3       1 <0>        -0.1441
      3 C3          1.0942    2.5588   -1.5583 C.2       1 <0>         0.5144
      4 O1          0.8134    3.5576   -2.1863 O.2       1 <0>        -0.5167
      5 N1          0.1590    1.9556   -0.7980 N.am      1 <0>        -0.6943
      6 C4         -1.1063    2.5355   -0.6541 C.ar      1 <0>         0.1814
      7 C5         -1.2424    3.9175   -0.6546 C.ar      1 <0>        -0.1293
      8 C6         -2.4934    4.4867   -0.5181 C.ar      1 <0>        -0.0613
      9 C7         -3.6083    3.6822   -0.3701 C.ar      1 <0>        -0.1347
     10 C8         -3.4753    2.3058   -0.3630 C.ar      1 <0>        -0.0772
     11 C9         -2.2278    1.7303   -0.5048 C.ar      1 <0>        -0.1498
     12 C10        -4.9711    4.3067   -0.2156 C.3       1 <0>         0.1483
     13 H1         -5.7552    3.5981   -0.5208 H         1 <0>         0.0858
     14 C11        -5.1589    4.7697    1.2305 C.3       1 <0>        -0.0361
     15 N2         -6.4910    5.3700    1.3833 N.4       1 <0>        -0.3977
     16 C12        -7.5351    4.4695    0.8780 C.3       1 <0>        -0.0130
     17 C13        -8.8882    5.1838    0.9163 C.3       1 <0>        -0.1733
     18 C14        -9.1983    5.6058    2.3534 C.3       1 <0>         0.1165
     19 C15        -8.0711    6.4979    2.8764 C.3       1 <0>        -0.1312
     20 C16        -6.7425    5.7439    2.7810 C.3       1 <0>        -0.0011
     21 C17       -10.5203    6.3807    2.3853 C.3       1 <0>        -0.1409
     22 C18       -11.6069    5.5042    1.7567 C.3       1 <0>         0.1639
     23 H2        -11.5054    5.4544    0.6625 H         1 <0>         0.0656
     24 C19       -11.5486    4.1201    2.3518 C.ar      1 <0>        -0.1956
     25 C20       -12.6489    3.2898    2.2164 C.ar      1 <0>        -0.0753
     26 C21       -12.6281    2.0135    2.7434 C.ar      1 <0>        -0.1015
     27 C22       -11.5050    1.5593    3.4102 C.ar      1 <0>        -0.0431
     28 C23       -10.4065    2.3824    3.5496 C.ar      1 <0>        -0.1428
     29 C24       -10.4242    3.6693    3.0205 C.ar      1 <0>         0.1258
     30 O2         -9.3249    4.4512    3.1813 O.3       1 <0>        -0.3072
     31 C25       -11.4807    0.1660    3.9839 C.3       1 <0>        -0.1234
     32 C26       -13.8289    1.1157    2.5914 C.3       1 <0>        -0.1251
     33 O3        -12.8893    6.0793    2.0148 O.3       1 <0>        -0.5856
     34 O4         -5.0831    5.4288   -1.0934 O.3       1 <0>        -0.5708
     35 H3          4.3639    2.4454   -2.6035 H         1 <0>         0.0685
     36 H4          3.3864    3.8855   -2.1593 H         1 <0>         0.0632
     37 H5          2.9035    2.8693   -3.5597 H         1 <0>         0.0639
     38 H6          2.4484    0.9656   -2.0213 H         1 <0>         0.0999
     39 H7          2.9313    1.9817   -0.6209 H         1 <0>         0.1006
     40 H8          0.3904    1.0074   -0.2906 H         1 <0>         0.4405
     41 H9         -0.3715    4.5465   -0.7657 H         1 <0>         0.1401
     42 H10        -2.6005    5.5614   -0.5232 H         1 <0>         0.1305
     43 H11        -4.3480    1.6801   -0.2468 H         1 <0>         0.1281
     44 H12        -2.1247    0.6552   -0.4992 H         1 <0>         0.1340
     45 H13        -5.0656    3.9071    1.9067 H         1 <0>         0.1388
     46 H14        -4.3898    5.5156    1.4795 H         1 <0>         0.1432
     47 H15        -7.3016    4.1821   -0.1578 H         1 <0>         0.1353
     48 H16        -7.5784    3.5685    1.5076 H         1 <0>         0.1352
     49 H17        -8.8511    6.0742    0.2715 H         1 <0>         0.1086
     50 H18        -9.6729    4.5024    0.5557 H         1 <0>         0.1196
     51 H19        -8.0182    7.4147    2.2709 H         1 <0>         0.1125
     52 H20        -8.2696    6.7624    3.9255 H         1 <0>         0.1268
     53 H21        -6.7908    4.8361    3.4004 H         1 <0>         0.1357
     54 H22        -5.9277    6.3898    3.1401 H         1 <0>         0.1380
     55 H23       -10.7820    6.6165    3.4274 H         1 <0>         0.0981
     56 H24       -10.4118    7.3145    1.8142 H         1 <0>         0.0969
     57 H25       -13.5273    3.6422    1.6963 H         1 <0>         0.1261
     58 H26        -9.5300    2.0267    4.0707 H         1 <0>         0.1310
     59 H27       -10.5116   -0.0123    4.4729 H         1 <0>         0.0690
     60 H28       -11.6236   -0.5660    3.1753 H         1 <0>         0.0782
     61 H29       -12.2891    0.0593    4.7222 H         1 <0>         0.0796
     62 H30       -13.6258    0.1472    3.0719 H         1 <0>         0.0739
     63 H31       -14.0362    0.9585    1.5226 H         1 <0>         0.0727
     64 H32       -14.7012    1.5861    3.0688 H         1 <0>         0.0742
     65 H33       -13.7985    5.5873    1.6388 H         1 <0>         0.4165
     66 H34        -6.0135    6.0149   -1.1208 H         1 <0>         0.3995
     67 H35        -6.5208    6.2893    0.7800 H         1 <0>         0.4340
@<TRIPOS>BOND
     1    1    2 1
     2    1   35 1
     3    1   36 1
     4    1   37 1
     5    2    3 1
     6    2   38 1
     7    2   39 1
     8    3    4 2
     9    3    5 am
    10    5    6 1
    11    5   40 1
    12    6   11 ar
    13    6    7 ar
    14    7    8 ar
    15    7   41 1
    16    8    9 ar
    17    8   42 1
    18    9   10 ar
    19    9   12 1
    20   10   11 ar
    21   10   43 1
    22   11   44 1
    23   12   13 1
    24   12   14 1
    25   12   34 1
    26   14   15 1
    27   14   45 1
    28   14   46 1
    29   15   20 1
    30   15   16 1
    31   15   67 1
    32   16   17 1
    33   16   47 1
    34   16   48 1
    35   17   18 1
    36   17   49 1
    37   17   50 1
    38   18   30 1
    39   18   19 1
    40   18   21 1
    41   19   20 1
    42   19   51 1
    43   19   52 1
    44   20   53 1
    45   20   54 1
    46   21   22 1
    47   21   55 1
    48   21   56 1
    49   22   23 1
    50   22   24 1
    51   22   33 1
    52   24   29 ar
    53   24   25 ar
    54   25   26 ar
    55   25   57 1
    56   26   27 ar
    57   26   32 1
    58   27   28 ar
    59   27   31 1
    60   28   29 ar
    61   28   58 1
    62   29   30 1
    63   31   59 1
    64   31   60 1
    65   31   61 1
    66   32   62 1
    67   32   63 1
    68   32   64 1
    69   33   65 1
    70   34   66 1
@<TRIPOS>MOLECULE
ZINC37361226
   65    69     0     0     0
SMALL
USER_CHARGES

@<TRIPOS>ATOM
      1 C1         -0.9718    1.6551   -3.0293 C.3       1 <0>        -0.1498
      2 C2         -0.7516    0.1805   -2.6861 C.3       1 <0>        -0.0671
      3 C3          0.3915    0.0571   -1.6766 C.3       1 <0>        -0.1491
      4 C4         -2.0123   -0.3902   -2.0895 C.ar      1 <0>        -0.0332
      5 C5         -2.5349    0.1540   -0.9305 C.ar      1 <0>        -0.0895
      6 C6         -3.6899   -0.3669   -0.3810 C.ar      1 <0>        -0.0949
      7 C7         -4.3269   -1.4382   -0.9940 C.ar      1 <0>         0.0688
      8 C8         -3.7997   -1.9821   -2.1581 C.ar      1 <0>        -0.1004
      9 C9         -2.6473   -1.4532   -2.7054 C.ar      1 <0>        -0.0901
     10 N1         -5.4977   -1.9689   -0.4393 N.pl3     1 <0>        -0.2821
     11 C10        -5.7521   -3.2825   -0.2798 C.2       1 <0>         0.5616
     12 C11        -7.0089   -3.3973    0.3018 C.ar      1 <0>        -0.3735
     13 C12        -7.8381   -4.4628    0.7176 C.ar      1 <0>         0.4139
     14 N2         -9.0175   -4.1704    1.2505 N.ar      1 <0>        -0.5637
     15 C13        -9.4342   -2.9168    1.4015 C.ar      1 <0>         0.6529
     16 N3         -8.7267   -1.8655    1.0417 N.ar      1 <0>        -0.5871
     17 C14        -7.5093   -2.0228    0.4875 C.ar      1 <0>         0.4900
     18 N4         -6.5752   -1.2139    0.0376 N.pl3     1 <0>        -0.4101
     19 N5        -10.6788   -2.7051    1.9669 N.pl3     1 <0>        -0.6468
     20 C15       -11.1767   -1.3398    2.1518 C.3       1 <0>         0.1258
     21 C16       -12.5656   -1.3857    2.7919 C.3       1 <0>         0.0621
     22 H1        -12.5207   -1.8928    3.7557 H         1 <0>         0.0843
     23 C17       -13.1260    0.0485    2.9644 C.3       1 <0>        -0.1464
     24 C18       -14.6534   -0.2319    2.9814 C.3       1 <0>        -0.1565
     25 C19       -14.7792   -1.4209    2.0049 C.3       1 <0>         0.0500
     26 O1        -13.4941   -2.0513    1.9211 O.3       1 <0>        -0.3798
     27 C20        -7.4026   -5.8694    0.5623 C.ar      1 <0>        -0.0508
     28 C21        -6.1098   -6.2464    0.9283 C.ar      1 <0>        -0.1516
     29 C22        -5.7069   -7.5579    0.7823 C.ar      1 <0>        -0.0727
     30 C23        -6.5807   -8.5015    0.2739 C.ar      1 <0>        -0.1780
     31 C24        -7.8683   -8.1354   -0.0932 C.ar      1 <0>         0.1390
     32 C25        -8.2845   -6.8227    0.0552 C.ar      1 <0>        -0.0922
     33 O2         -8.7230   -9.0666   -0.5927 O.3       1 <0>        -0.3087
     34 C26        -8.2293  -10.4022   -0.7125 C.3       1 <0>         0.0220
     35 N6         -4.9157   -4.3253   -0.6307 N.pl3     1 <0>        -0.7881
     36 H2         -0.0599    2.0679   -3.4608 H         1 <0>         0.0695
     37 H3         -1.7862    1.7431   -3.7485 H         1 <0>         0.0593
     38 H4         -1.2263    2.2050   -2.1233 H         1 <0>         0.0595
     39 H5         -0.4971   -0.3694   -3.5921 H         1 <0>         0.0892
     40 H6          0.5485   -0.9935   -1.4321 H         1 <0>         0.0593
     41 H7          1.3034    0.4699   -2.1081 H         1 <0>         0.0694
     42 H8          0.1371    0.6070   -0.7705 H         1 <0>         0.0595
     43 H9         -2.0391    0.9870   -0.4544 H         1 <0>         0.1470
     44 H10        -4.0971    0.0580    0.5245 H         1 <0>         0.1388
     45 H11        -4.2927   -2.8151   -2.6372 H         1 <0>         0.1409
     46 H12        -2.2390   -1.8730   -3.6128 H         1 <0>         0.1493
     47 H13       -11.2218   -3.4607    2.2411 H         1 <0>         0.4328
     48 H14       -10.4955   -0.7894    2.8007 H         1 <0>         0.0949
     49 H15       -11.2388   -0.8416    1.1842 H         1 <0>         0.0889
     50 H16       -12.7967    0.4883    3.9058 H         1 <0>         0.0911
     51 H17       -12.8521    0.6814    2.1202 H         1 <0>         0.0850
     52 H18       -14.9849   -0.5139    3.9808 H         1 <0>         0.0817
     53 H19       -15.2103    0.6309    2.6159 H         1 <0>         0.0889
     54 H20       -15.5145   -2.1322    2.3811 H         1 <0>         0.0747
     55 H21       -15.0805   -1.0612    1.0211 H         1 <0>         0.0742
     56 H22        -5.4249   -5.5118    1.3253 H         1 <0>         0.1332
     57 H23        -4.7060   -7.8484    1.0656 H         1 <0>         0.1420
     58 H24        -6.2600   -9.5267    0.1618 H         1 <0>         0.1421
     59 H25        -9.2877   -6.5375   -0.2252 H         1 <0>         0.1461
     60 H26        -9.0100  -11.0427   -1.1230 H         1 <0>         0.1093
     61 H27        -7.3649  -10.4120   -1.3764 H         1 <0>         0.0611
     62 H28        -7.9365  -10.7709    0.2706 H         1 <0>         0.0621
     63 H29        -3.9691   -4.1631   -0.7669 H         1 <0>         0.4261
     64 H30        -5.2752   -5.2195   -0.7407 H         1 <0>         0.4436
     65 H31        -6.6262   -0.2452    0.0343 H         1 <0>         0.4720
@<TRIPOS>BOND
     1    1    2 1
     2    1   36 1
     3    1   37 1
     4    1   38 1
     5    2    3 1
     6    2    4 1
     7    2   39 1
     8    3   40 1
     9    3   41 1
    10    3   42 1
    11    4    9 ar
    12    4    5 ar
    13    5    6 ar
    14    5   43 1
    15    6    7 ar
    16    6   44 1
    17    7    8 ar
    18    7   10 1
    19    8    9 ar
    20    8   45 1
    21    9   46 1
    22   10   18 1
    23   10   11 1
    24   11   12 2
    25   11   35 1
    26   12   17 ar
    27   12   13 ar
    28   13   14 ar
    29   13   27 1
    30   14   15 ar
    31   15   16 ar
    32   15   19 1
    33   16   17 ar
    34   17   18 2
    35   18   65 1
    36   19   20 1
    37   19   47 1
    38   20   21 1
    39   20   48 1
    40   20   49 1
    41   21   22 1
    42   21   26 1
    43   21   23 1
    44   23   24 1
    45   23   50 1
    46   23   51 1
    47   24   25 1
    48   24   52 1
    49   24   53 1
    50   25   26 1
    51   25   54 1
    52   25   55 1
    53   27   32 ar
    54   27   28 ar
    55   28   29 ar
    56   28   56 1
    57   29   30 ar
    58   29   57 1
    59   30   31 ar
    60   30   58 1
    61   31   32 ar
    62   31   33 1
    63   32   59 1
    64   33   34 1
    65   34   60 1
    66   34   61 1
    67   34   62 1
    68   35   63 1
    69   35   64 1
@<TRIPOS>MOLECULE
ZINC40758766
   54    57     0     0     0
SMALL
USER_CHARGES

@<TRIPOS>ATOM
      1 C1         -4.5392   -4.0155    3.3271 C.3       1 <0>        -0.1148
      2 C2         -3.3305   -4.0315    2.4272 C.ar      1 <0>         0.1869
      3 C3         -3.3841   -4.7450    1.2318 C.ar      1 <0>        -0.1652
      4 C4         -2.2979   -4.7703    0.4043 C.ar      1 <0>        -0.0372
      5 C5         -1.1462   -4.0624    0.7977 C.ar      1 <0>        -0.1050
      6 C6          0.0075   -4.0434   -0.0031 C.ar      1 <0>        -0.0525
      7 C7          1.1058   -3.3491    0.4044 C.ar      1 <0>        -0.1214
      8 C8          1.1064   -2.6524    1.6094 C.ar      1 <0>        -0.0560
      9 C9         -0.0058   -2.6474    2.4227 C.ar      1 <0>         0.0712
     10 C10        -1.1604   -3.3583    2.0261 C.ar      1 <0>         0.1252
     11 N1         -2.2577   -3.3694    2.7872 N.ar      1 <0>        -0.4994
     12 N2          0.0081   -1.9459    3.6282 N.pl3     1 <0>        -0.6233
     13 C11        -0.0633   -2.6343    4.8338 C.ar      1 <0>         0.4330
     14 C12        -0.1786   -1.9408    6.0407 C.ar      1 <0>         0.1162
     15 C13        -0.2464   -2.6812    7.2222 C.ar      1 <0>         0.4297
     16 N3         -0.1990   -4.0097    7.1541 N.ar      1 <0>        -0.4298
     17 C14        -0.0898   -4.6250    5.9943 C.ar      1 <0>         0.3238
     18 N4         -0.0283   -3.9644    4.8556 N.ar      1 <0>        -0.5034
     19 N5         -0.3614   -2.0407    8.4515 N.pl3     1 <0>        -0.6017
     20 C15        -1.6788   -1.6296    8.9428 C.3       1 <0>         0.1118
     21 C16         0.7733   -1.7909    9.2134 C.ar      1 <0>         0.2003
     22 C17         1.4703   -0.5988    9.0583 C.ar      1 <0>        -0.1298
     23 C18         2.5966   -0.3530    9.8160 C.ar      1 <0>        -0.0745
     24 C19         3.0422   -1.2895   10.7360 C.ar      1 <0>        -0.1181
     25 C20         2.3650   -2.4770   10.9042 C.ar      1 <0>        -0.0556
     26 C21         1.2186   -2.7390   10.1484 C.ar      1 <0>        -0.1198
     27 C22         0.4862   -4.0045   10.3270 C.2       1 <0>         0.4958
     28 O1         -0.5069   -4.2306    9.6641 O.2       1 <0>        -0.4641
     29 O2          0.9173   -4.9116   11.2257 O.3       1 <0>        -0.3533
     30 C23         0.1587   -6.1165   11.3464 C.3       1 <0>         0.0391
     31 N6         -0.2246   -0.5384    6.0650 N.pl3     1 <0>        -0.8356
     32 H1         -5.1820   -3.1776    3.0572 H         1 <0>         0.0903
     33 H2         -5.0907   -4.9485    3.2115 H         1 <0>         0.0871
     34 H3         -4.2192   -3.9086    4.3636 H         1 <0>         0.0777
     35 H4         -4.2833   -5.2778    0.9600 H         1 <0>         0.1493
     36 H5         -2.3216   -5.3185   -0.5260 H         1 <0>         0.1526
     37 H6          0.0237   -4.5790   -0.9407 H         1 <0>         0.1462
     38 H7          1.9896   -3.3392   -0.2163 H         1 <0>         0.1471
     39 H8          1.9899   -2.1092    1.9108 H         1 <0>         0.1448
     40 H9          0.0677   -0.9777    3.6253 H         1 <0>         0.4352
     41 H10        -0.0541   -5.7042    5.9757 H         1 <0>         0.2369
     42 H11        -2.0782   -2.4012    9.6010 H         1 <0>         0.0645
     43 H12        -1.5851   -0.6942    9.4946 H         1 <0>         0.0760
     44 H13        -2.3534   -1.4874    8.0985 H         1 <0>         0.0678
     45 H14         1.1301    0.1359    8.3436 H         1 <0>         0.1297
     46 H15         3.1350    0.5749    9.6915 H         1 <0>         0.1388
     47 H16         3.9254   -1.0870   11.3237 H         1 <0>         0.1405
     48 H17         2.7169   -3.2031   11.6221 H         1 <0>         0.1459
     49 H18         0.6128   -6.7576   12.1019 H         1 <0>         0.1039
     50 H19        -0.8626   -5.8749   11.6410 H         1 <0>         0.0612
     51 H20         0.1471   -6.6361   10.3883 H         1 <0>         0.0609
     52 H21        -0.2477   -0.0395    5.2335 H         1 <0>         0.4071
     53 H22        -0.2332   -0.0681    6.9133 H         1 <0>         0.4226
     54 H23         0.0473   -4.4545    4.0220 H         1 <0>         0.4415
@<TRIPOS>BOND
     1    1    2 1
     2    1   32 1
     3    1   33 1
     4    1   34 1
     5    2   11 ar
     6    2    3 ar
     7    3    4 ar
     8    3   35 1
     9    4    5 ar
    10    4   36 1
    11    5   10 ar
    12    5    6 ar
    13    6    7 ar
    14    6   37 1
    15    7    8 ar
    16    7   38 1
    17    8    9 ar
    18    8   39 1
    19    9   10 ar
    20    9   12 1
    21   10   11 ar
    22   12   13 1
    23   12   40 1
    24   13   18 ar
    25   13   14 ar
    26   14   15 ar
    27   14   31 1
    28   15   16 ar
    29   15   19 1
    30   16   17 ar
    31   17   18 ar
    32   17   41 1
    33   18   54 1
    34   19   20 1
    35   19   21 1
    36   20   42 1
    37   20   43 1
    38   20   44 1
    39   21   26 ar
    40   21   22 ar
    41   22   23 ar
    42   22   45 1
    43   23   24 ar
    44   23   46 1
    45   24   25 ar
    46   24   47 1
    47   25   26 ar
    48   25   48 1
    49   26   27 1
    50   27   28 2
    51   27   29 1
    52   29   30 1
    53   30   49 1
    54   30   50 1
    55   30   51 1
    56   31   52 1
    57   31   53 1
@<TRIPOS>MOLECULE
ZINC12847185
   59    63     0     0     0
SMALL
USER_CHARGES

@<TRIPOS>ATOM
      1 C1         -0.0819    0.9460   -1.2139 C.3       1 <0>        -0.1296
      2 C2         -0.0824   -0.5300   -0.9100 C.ar      1 <0>        -0.0518
      3 C3         -0.1728   -1.4477   -1.9398 C.ar      1 <0>        -0.1067
      4 C4         -0.1733   -2.8017   -1.6611 C.ar      1 <0>        -0.0803
      5 C5         -0.0829   -3.2379   -0.3525 C.ar      1 <0>        -0.1527
      6 C6          0.0085   -2.3202    0.6773 C.ar      1 <0>        -0.1204
      7 C7          0.0133   -0.9664    0.3982 C.ar      1 <0>        -0.1094
      8 C8         -0.0844   -4.7139   -0.0485 C.3       1 <0>         0.1698
      9 H1          0.1926   -5.2663   -0.9464 H         1 <0>         0.1566
     10 C9         -1.4864   -5.1370    0.3920 C.3       1 <0>        -0.1523
     11 C10        -1.8680   -4.4006    1.6857 C.3       1 <0>         0.1043
     12 H2         -1.9766   -3.3343    1.4875 H         1 <0>         0.1689
     13 N1         -0.7825   -4.6219    2.6474 N.pl3     1 <0>        -0.3821
     14 C11         0.5147   -4.9193    2.2543 C.cat     1 <0>         0.5172
     15 N2          0.8928   -4.9913    1.0116 N.pl3     1 <0>        -0.6169
     16 C12         1.2834   -5.1075    3.4907 C.2       1 <0>        -0.2984
     17 C13         0.4163   -4.8933    4.5293 C.2       1 <0>         0.2966
     18 N3         -0.8122   -4.5919    4.0364 N.pl3     1 <0>        -0.4263
     19 C14         2.7041   -5.4571    3.5938 C.2       1 <0>         0.5987
     20 O1          3.2481   -5.4783    4.6824 O.2       1 <0>        -0.4795
     21 N4          3.4072   -5.7548    2.4832 N.am      1 <0>        -0.6577
     22 C15         4.7359   -6.1844    2.5898 C.ar      1 <0>         0.1556
     23 C16         5.2108   -6.6798    3.7969 C.ar      1 <0>        -0.1149
     24 C17         6.5243   -7.1048    3.9015 C.ar      1 <0>         0.0630
     25 C18         7.3672   -7.0343    2.7945 C.ar      1 <0>         0.0336
     26 C19         6.8898   -6.5389    1.5923 C.ar      1 <0>        -0.0710
     27 C20         5.5767   -6.1204    1.4872 C.ar      1 <0>        -0.1397
     28 C21         5.0590   -5.5884    0.1757 C.3       1 <0>         0.1507
     29 H3          4.3423   -4.7893    0.3652 H         1 <0>         0.0954
     30 C22         4.3725   -6.7165   -0.5969 C.3       1 <0>        -0.1937
     31 O2          6.1488   -5.0779   -0.5949 O.3       1 <0>        -0.5460
     32 O3          8.5972   -7.5089    3.1524 O.3       1 <0>        -0.3025
     33 C23         8.6132   -7.4877    4.5920 C.3       1 <0>         0.2121
     34 O4          7.2257   -7.6232    4.9517 O.3       1 <0>        -0.3007
     35 C24        -3.1788   -4.9637    2.2384 C.3       1 <0>         0.4547
     36 F1         -3.0221   -6.3266    2.5125 F         1 <0>        -0.1604
     37 F2         -3.5174   -4.2873    3.4153 F         1 <0>        -0.1699
     38 F3         -4.1956   -4.7921    1.2929 F         1 <0>        -0.1442
     39 H4          0.9426    1.2849   -1.3678 H         1 <0>         0.0825
     40 H5         -0.6652    1.1315   -2.1158 H         1 <0>         0.0768
     41 H6         -0.5226    1.4892   -0.3780 H         1 <0>         0.0738
     42 H7         -0.2435   -1.1069   -2.9622 H         1 <0>         0.1379
     43 H8         -0.2447   -3.5186   -2.4656 H         1 <0>         0.1375
     44 H9          0.0788   -2.6611    1.6997 H         1 <0>         0.1052
     45 H10         0.0884   -0.2495    1.2024 H         1 <0>         0.1314
     46 H11        -2.2028   -4.8890   -0.3912 H         1 <0>         0.1585
     47 H12        -1.5018   -6.2125    0.5689 H         1 <0>         0.1224
     48 H13         0.6704   -4.9550    5.5772 H         1 <0>         0.2513
     49 H14        -1.5934   -4.3860    4.5732 H         1 <0>         0.4754
     50 H15         2.9930   -5.6715    1.6101 H         1 <0>         0.3908
     51 H16         4.5558   -6.7333    4.6540 H         1 <0>         0.1727
     52 H17         7.5434   -6.4840    0.7343 H         1 <0>         0.1450
     53 H18         3.5412   -7.1059   -0.0092 H         1 <0>         0.0588
     54 H19         3.9980   -6.3318   -1.5455 H         1 <0>         0.0785
     55 H20         5.0891   -7.5156   -0.7865 H         1 <0>         0.0776
     56 H21         6.8267   -5.7359   -0.8015 H         1 <0>         0.3841
     57 H22         9.1932   -8.3246    4.9809 H         1 <0>         0.1396
     58 H23         9.0127   -6.5413    4.9566 H         1 <0>         0.0917
     59 H24         1.8076   -5.2246    0.7890 H         1 <0>         0.4384
@<TRIPOS>BOND
     1    1    2 1
     2    1   39 1
     3    1   40 1
     4    1   41 1
     5    2    7 ar
     6    2    3 ar
     7    3    4 ar
     8    3   42 1
     9    4    5 ar
    10    4   43 1
    11    5    6 ar
    12    5    8 1
    13    6    7 ar
    14    6   44 1
    15    7   45 1
    16    8    9 1
    17    8   15 1
    18    8   10 1
    19   10   11 1
    20   10   46 1
    21   10   47 1
    22   11   12 1
    23   11   13 1
    24   11   35 1
    25   13   18 1
    26   13   14 1
    27   14   15 2
    28   14   16 1
    29   15   59 1
    30   16   17 2
    31   16   19 1
    32   17   18 1
    33   17   48 1
    34   18   49 1
    35   19   20 2
    36   19   21 am
    37   21   22 1
    38   21   50 1
    39   22   27 ar
    40   22   23 ar
    41   23   24 ar
    42   23   51 1
    43   24   34 1
    44   24   25 ar
    45   25   26 ar
    46   25   32 1
    47   26   27 ar
    48   26   52 1
    49   27   28 1
    50   28   29 1
    51   28   30 1
    52   28   31 1
    53   30   53 1
    54   30   54 1
    55   30   55 1
    56   31   56 1
    57   32   33 1
    58   33   34 1
    59   33   57 1
    60   33   58 1
    61   35   36 1
    62   35   37 1
    63   35   38 1
@<TRIPOS>MOLECULE
ZINC64380732
   59    62     0     0     0
SMALL
USER_CHARGES

@<TRIPOS>ATOM
      1 C1         -0.0151    1.4940   -0.2306 C.3       1 <0>        -0.1480
      2 C2          0.0076   -0.0164    0.0124 C.3       1 <0>        -0.0926
      3 C3          0.7725   -0.3138    1.3037 C.3       1 <0>        -0.1461
      4 C4         -1.4266   -0.5342    0.1385 C.3       1 <0>         0.1489
      5 H1         -1.4107   -1.6113    0.3051 H         1 <0>         0.1345
      6 C5         -2.1827   -0.2332   -1.1298 C.2       1 <0>         0.5221
      7 O1         -3.1749    0.4634   -1.0935 O.2       1 <0>        -0.5231
      8 N1         -1.7564   -0.7381   -2.3045 N.am      1 <0>        -0.7318
      9 C6         -2.4914   -0.4454   -3.5375 C.3       1 <0>         0.1266
     10 C7         -1.8025   -1.1339   -4.7175 C.3       1 <0>        -0.1059
     11 C8         -2.5586   -0.8328   -5.9858 C.2       1 <0>         0.0693
     12 C9         -2.2928    0.1485   -6.8758 C.ar      1 <0>        -0.1801
     13 C10        -1.2582    1.1899   -6.9257 C.ar      1 <0>         0.0287
     14 C11        -1.2431    2.0510   -7.9658 C.ar      1 <0>        -0.2156
     15 C12        -2.1941    1.9747   -9.0012 C.ar      1 <0>         0.2967
     16 C13        -3.1777    1.0395   -9.0210 C.ar      1 <0>        -0.2731
     17 C14        -3.2819    0.0877   -7.9763 C.ar      1 <0>         0.3494
     18 N2         -4.1275   -0.8961   -7.7725 N.pl3     1 <0>        -0.5960
     19 C15        -3.7636   -1.5723   -6.5223 C.3       1 <0>         0.0669
     20 O2         -2.1249    2.8701  -10.0172 O.3       1 <0>        -0.2834
     21 C16        -1.0754    3.8381   -9.9586 C.3       1 <0>         0.0086
     22 N3         -2.0862    0.1249    1.2684 N.am      1 <0>        -0.4564
     23 C17        -2.4439   -0.6131    2.3445 C.2       1 <0>         0.5634
     24 O3         -2.3138   -1.8221    2.3509 O.2       1 <0>        -0.5190
     25 C18        -2.9972    0.1031    3.5105 C.ar      1 <0>        -0.2100
     26 C19        -3.6216   -0.5439    4.5684 C.ar      1 <0>        -0.0169
     27 C20        -4.1093    0.2023    5.6233 C.ar      1 <0>        -0.1640
     28 C21        -3.9786    1.5822    5.6296 C.ar      1 <0>        -0.0469
     29 C22        -3.3598    2.2376    4.5810 C.ar      1 <0>        -0.1724
     30 C23        -2.8678    1.5059    3.5171 C.ar      1 <0>         0.2004
     31 N4         -2.2410    2.0881    2.4220 N.pl3     1 <0>        -0.5917
     32 N5         -2.3183    1.4646    1.2106 N.3       1 <0>        -0.1959
     33 H2          0.9953    1.8428   -0.4440 H         1 <0>         0.0517
     34 H3         -0.6627    1.7158   -1.0788 H         1 <0>         0.0485
     35 H4         -0.3939    1.9993    0.6577 H         1 <0>         0.0850
     36 H5          0.5004   -0.5117   -0.8241 H         1 <0>         0.0820
     37 H6          1.7943    0.0551    1.2138 H         1 <0>         0.0636
     38 H7          0.2796    0.1815    2.1403 H         1 <0>         0.0578
     39 H8          0.7886   -1.3898    1.4769 H         1 <0>         0.0580
     40 H9         -0.9629   -1.2952   -2.3335 H         1 <0>         0.4077
     41 H10        -3.5131   -0.8143   -3.4476 H         1 <0>         0.0788
     42 H11        -2.5073    0.6316   -3.7041 H         1 <0>         0.0801
     43 H12        -0.7808   -0.7650   -4.8073 H         1 <0>         0.1157
     44 H13        -1.7866   -2.2110   -4.5509 H         1 <0>         0.1198
     45 H14        -0.5198    1.2660   -6.1412 H         1 <0>         0.1675
     46 H15        -0.4831    2.8173   -8.0041 H         1 <0>         0.1652
     47 H16        -3.8847    1.0208   -9.8373 H         1 <0>         0.1663
     48 H17        -3.5091   -2.6143   -6.7165 H         1 <0>         0.1697
     49 H18        -4.5880   -1.5125   -5.8118 H         1 <0>         0.1684
     50 H19        -1.1798    4.4326   -9.0510 H         1 <0>         0.0760
     51 H20        -0.1116    3.3291   -9.9508 H         1 <0>         0.0760
     52 H21        -1.1344    4.4911  -10.8294 H         1 <0>         0.1238
     53 H22        -3.7252   -1.6190    4.5662 H         1 <0>         0.1375
     54 H23        -4.5968   -0.2933    6.4498 H         1 <0>         0.1334
     55 H24        -4.3644    2.1516    6.4622 H         1 <0>         0.1340
     56 H25        -3.2619    3.3131    4.5933 H         1 <0>         0.1353
     57 H26        -1.7547    2.9221    2.5167 H         1 <0>         0.4388
     58 H27        -3.2015    1.6596    0.7635 H         1 <0>         0.3575
     59 H28        -4.8663   -1.1375   -8.3528 H         1 <0>         0.4553
@<TRIPOS>BOND
     1    1    2 1
     2    1   33 1
     3    1   34 1
     4    1   35 1
     5    2    3 1
     6    2    4 1
     7    2   36 1
     8    3   37 1
     9    3   38 1
    10    3   39 1
    11    4    5 1
    12    4    6 1
    13    4   22 1
    14    6    7 2
    15    6    8 am
    16    8    9 1
    17    8   40 1
    18    9   10 1
    19    9   41 1
    20    9   42 1
    21   10   11 1
    22   10   43 1
    23   10   44 1
    24   11   19 1
    25   11   12 2
    26   12   17 ar
    27   12   13 ar
    28   13   14 ar
    29   13   45 1
    30   14   15 ar
    31   14   46 1
    32   15   16 ar
    33   15   20 1
    34   16   17 ar
    35   16   47 1
    36   17   18 2
    37   18   19 1
    38   18   59 1
    39   19   48 1
    40   19   49 1
    41   20   21 1
    42   21   50 1
    43   21   51 1
    44   21   52 1
    45   22   32 1
    46   22   23 am
    47   23   24 2
    48   23   25 1
    49   25   30 ar
    50   25   26 ar
    51   26   27 ar
    52   26   53 1
    53   27   28 ar
    54   27   54 1
    55   28   29 ar
    56   28   55 1
    57   29   30 ar
    58   29   56 1
    59   30   31 1
    60   31   32 1
    61   31   57 1
    62   32   58 1
@<TRIPOS>MOLECULE
ZINC08776578
   71    73     0     0     0
SMALL
USER_CHARGES
3-(2,3-dimethylphenyl)-1-[[(4,6-dimethylpyrimidin-2-yl)amino]-[(2,2,6,6-tetramethyl-4-piperidyl)amino]methylene]thiourea
@<TRIPOS>ATOM
      1 C1          3.2519   12.0706   -4.0294 C.3       1 <0>        -0.1158
      2 C2          2.7237   10.7511   -3.5284 C.ar      1 <0>        -0.0810
      3 C3          2.0436   10.6911   -2.3256 C.ar      1 <0>        -0.1040
      4 C4          1.5570    9.4825   -1.8626 C.ar      1 <0>        -0.1121
      5 C5          1.7489    8.3307   -2.6005 C.ar      1 <0>        -0.0682
      6 C6          2.4314    8.3875   -3.8086 C.ar      1 <0>         0.1196
      7 C7          2.9239    9.6024   -4.2682 C.ar      1 <0>        -0.0811
      8 C8          3.6710    9.6676   -5.5753 C.3       1 <0>        -0.1114
      9 N1          2.6273    7.2233   -4.5582 N.pl3     1 <0>        -0.5902
     10 C9          1.5737    6.4534   -4.8950 C.2       1 <0>         0.5625
     11 S1         -0.0130    6.9455   -4.4814 S.2       1 <0>        -0.6588
     12 N2          1.7682    5.3022   -5.5541 N.2       1 <0>        -0.6119
     13 C10         0.7350    4.6365   -6.0407 C.2       1 <0>         0.7438
     14 N3         -0.4635    5.2719   -6.2248 N.pl3     1 <0>        -0.6474
     15 C11        -0.5323    6.4068   -7.0218 C.ar      1 <0>         0.6079
     16 N4          0.5408    6.7875   -7.6981 N.ar      1 <0>        -0.5694
     17 C12         0.5079    7.8610   -8.4702 C.ar      1 <0>         0.2165
     18 C13        -0.6646    8.5951   -8.5577 C.ar      1 <0>        -0.2680
     19 C14        -1.7671    8.1710   -7.8323 C.ar      1 <0>         0.2216
     20 N5         -1.6677    7.0854   -7.0832 N.ar      1 <0>        -0.5330
     21 C15        -3.0632    8.9372   -7.8968 C.3       1 <0>        -0.1088
     22 C16         1.7318    8.2837   -9.2412 C.3       1 <0>        -0.1063
     23 N6          0.8631    3.3154   -6.3596 N.pl3     1 <0>        -0.6820
     24 C17        -0.2846    2.5759   -6.9001 C.3       1 <0>         0.1390
     25 C18        -0.1141    1.0882   -6.5942 C.3       1 <0>        -0.1360
     26 C19        -1.2849    0.2912   -7.1641 C.3       1 <0>         0.0675
     27 C20        -1.5035    1.9799   -9.0100 C.3       1 <0>         0.0654
     28 C21        -0.3315    2.7578   -8.4169 C.3       1 <0>        -0.1417
     29 C22        -1.3234    1.9657  -10.5444 C.3       1 <0>        -0.1830
     30 C23        -2.8127    2.7212   -8.7140 C.3       1 <0>        -0.1744
     31 C24        -2.5246    0.5035   -6.2871 C.3       1 <0>        -0.1775
     32 C25        -0.9145   -1.2062   -7.0772 C.3       1 <0>        -0.1841
     33 H1          4.2653   12.2211   -3.6575 H         1 <0>         0.0731
     34 H2          3.2615   12.0679   -5.1193 H         1 <0>         0.0674
     35 H3          2.6108   12.8772   -3.6737 H         1 <0>         0.0701
     36 H4          1.8925   11.5901   -1.7466 H         1 <0>         0.1269
     37 H5          1.0260    9.4391   -0.9232 H         1 <0>         0.1283
     38 H6          1.3683    7.3871   -2.2385 H         1 <0>         0.1256
     39 H7          2.9676    9.8538   -6.3869 H         1 <0>         0.0687
     40 H8          4.4023   10.4749   -5.5360 H         1 <0>         0.0762
     41 H9          4.1835    8.7213   -5.7485 H         1 <0>         0.0578
     42 H10         3.5216    6.9699   -4.8356 H         1 <0>         0.4097
     43 H11        -1.2646    4.9294   -5.7985 H         1 <0>         0.4296
     44 H12        -0.7179    9.4782   -9.1771 H         1 <0>         0.1455
     45 H13        -3.0745    9.6985   -7.1168 H         1 <0>         0.0894
     46 H14        -3.1546    9.4151   -8.8723 H         1 <0>         0.0829
     47 H15        -3.8980    8.2523   -7.7481 H         1 <0>         0.0817
     48 H16         2.3723    8.8910   -8.6017 H         1 <0>         0.0844
     49 H17         2.2786    7.3993   -9.5683 H         1 <0>         0.0792
     50 H18         1.4297    8.8666  -10.1114 H         1 <0>         0.0836
     51 H19         1.7123    2.8651   -6.2291 H         1 <0>         0.4283
     52 H20        -1.1952    2.9555   -6.4439 H         1 <0>         0.1030
     53 H21        -0.0681    0.9435   -5.5124 H         1 <0>         0.1236
     54 H22         0.8185    0.7315   -7.0373 H         1 <0>         0.1019
     55 H23        -0.4438    3.8189   -8.6512 H         1 <0>         0.1127
     56 H24         0.6025    2.3976   -8.8542 H         1 <0>         0.0991
     57 H25        -2.1675    1.4521  -11.0046 H         1 <0>         0.0852
     58 H26        -1.2758    2.9899  -10.9142 H         1 <0>         0.1048
     59 H27        -0.3997    1.4449  -10.7970 H         1 <0>         0.0823
     60 H28        -2.9943    2.7229   -7.6392 H         1 <0>         0.0818
     61 H29        -2.7376    3.7482   -9.0714 H         1 <0>         0.1047
     62 H30        -3.6370    2.2194   -9.2209 H         1 <0>         0.0859
     63 H31        -3.3314   -0.1410   -6.6362 H         1 <0>         0.0864
     64 H32        -2.2846    0.2571   -5.2528 H         1 <0>         0.1085
     65 H33        -2.8393    1.5453   -6.3488 H         1 <0>         0.0819
     66 H34        -0.0339   -1.3988   -7.6899 H         1 <0>         0.0828
     67 H35        -0.7005   -1.4680   -6.0409 H         1 <0>         0.1079
     68 H36        -1.7479   -1.8083   -7.4393 H         1 <0>         0.0857
     69 N7         -1.5812    0.5525   -8.5983 N.4       1 <0>        -0.5090
     70 H37        -2.5318    0.2168   -8.7928 H         1 <0>         0.4340
     71 H38        -0.9084    0.0215   -9.1637 H         1 <0>         0.4305
@<TRIPOS>BOND
     1    1    2 1
     2    1   33 1
     3    1   34 1
     4    1   35 1
     5    2    7 ar
     6    2    3 ar
     7    3    4 ar
     8    3   36 1
     9    4    5 ar
    10    4   37 1
    11    5    6 ar
    12    5   38 1
    13    6    7 ar
    14    6    9 1
    15    7    8 1
    16    8   39 1
    17    8   40 1
    18    8   41 1
    19    9   10 1
    20    9   42 1
    21   10   11 2
    22   10   12 1
    23   12   13 2
    24   13   14 1
    25   13   23 1
    26   14   15 1
    27   14   43 1
    28   15   20 ar
    29   15   16 ar
    30   16   17 ar
    31   17   18 ar
    32   17   22 1
    33   18   19 ar
    34   18   44 1
    35   19   20 ar
    36   19   21 1
    37   21   45 1
    38   21   46 1
    39   21   47 1
    40   22   48 1
    41   22   49 1
    42   22   50 1
    43   23   24 1
    44   23   51 1
    45   24   28 1
    46   24   25 1
    47   24   52 1
    48   25   26 1
    49   25   53 1
    50   25   54 1
    51   26   31 1
    52   26   32 1
    53   26   69 1
    54   27   28 1
    55   27   29 1
    56   27   30 1
    57   27   69 1
    58   28   55 1
    59   28   56 1
    60   29   57 1
    61   29   58 1
    62   29   59 1
    63   30   60 1
    64   30   61 1
    65   30   62 1
    66   31   63 1
    67   31   64 1
    68   31   65 1
    69   32   66 1
    70   32   67 1
    71   32   68 1
    72   69   70 1
    73   69   71 1
@<TRIPOS>MOLECULE
ZINC22055017
   61    62     0     0     0
SMALL
USER_CHARGES
(2S,4S)-N-[(1R,2R)-2-chloro-1-[(2S,3R,4R,5S,6R)-3,4,5-trihydroxy-6-methylsulfanyl-tetrahydropyran-2-yl]propyl]-1-methyl-4-propyl-pyrrolidine-2-carboxamide
@<TRIPOS>ATOM
      1 C1          3.6069    1.6115   -1.1952 C.3       1 <0>        -0.1609
      2 C2          2.1825    1.0530   -1.1846 C.3       1 <0>        -0.1289
      3 C3          1.4117    1.6443   -0.0026 C.3       1 <0>        -0.1220
      4 C4         -0.0127    1.0858    0.0080 C.3       1 <0>        -0.1107
      5 H1          0.1021   -0.0081   -0.0033 H         1 <0>         0.1142
      6 C5         -0.8010    1.6170    1.2341 C.3       1 <0>        -0.1188
      7 C6         -2.2648    1.5310    0.7201 C.3       1 <0>         0.0168
      8 H2         -2.7272    0.5398    0.8374 H         1 <0>         0.1589
      9 N1         -2.1865    1.9004   -0.7093 N.4       1 <0>        -0.3937
     10 C7         -0.8199    1.6271   -1.1906 C.3       1 <0>        -0.0068
     11 C8         -3.1805    1.1615   -1.4992 C.3       1 <0>        -0.0486
     12 C9         -3.1403    2.5044    1.4664 C.2       1 <0>         0.5104
     13 O1         -3.3846    3.5912    0.9868 O.2       1 <0>        -0.5341
     14 N2         -3.6519    2.1672    2.6669 N.am      1 <0>        -0.6849
     15 C10        -4.5030    3.1135    3.3924 C.3       1 <0>         0.1631
     16 H3         -4.1160    4.1222    3.1856 H         1 <0>         0.1197
     17 C11        -4.4416    2.8096    4.8906 C.3       1 <0>         0.0866
     18 H4         -4.8476    1.8113    5.1111 H         1 <0>         0.0900
     19 C12        -2.9972    2.9437    5.3800 C.3       1 <0>         0.1127
     20 H5         -2.5736    3.9248    5.1193 H         1 <0>         0.0732
     21 C13        -2.9534    2.6972    6.8911 C.3       1 <0>         0.1006
     22 H6         -3.2061    1.6556    7.1385 H         1 <0>         0.0717
     23 C14        -3.8965    3.6841    7.5859 C.3       1 <0>         0.0756
     24 H7         -3.5392    4.7198    7.4879 H         1 <0>         0.0779
     25 C15        -5.3062    3.5214    7.0114 C.3       1 <0>         0.0813
     26 H8         -5.5335    2.4463    7.0601 H         1 <0>         0.0864
     27 O2         -5.2707    3.7334    5.5986 O.3       1 <0>        -0.3627
     28 S1         -6.4156    4.7348    7.7778 S.3       1 <0>        -0.1654
     29 C16        -8.0688    4.2223    7.2349 C.3       1 <0>        -0.1317
     30 O3         -3.9190    3.4159    8.9894 O.3       1 <0>        -0.5884
     31 O4         -1.6204    2.8904    7.3685 O.3       1 <0>        -0.5946
     32 O5         -2.1765    1.9813    4.7151 O.3       1 <0>        -0.5942
     33 C17        -5.9466    2.9794    2.9035 C.3       1 <0>        -0.0221
     34 H9         -6.4627    3.8633    3.3064 H         1 <0>         0.1244
     35 C18        -5.9897    3.1604    1.3849 C.3       1 <0>        -0.1534
     36 Cl1        -6.5770    1.3455    3.3321 Cl        1 <0>        -0.1557
     37 H10         4.1611    1.1864   -2.0450 H         1 <0>         0.0615
     38 H11         4.1130    1.3430   -0.2562 H         1 <0>         0.0594
     39 H12         3.5706    2.7066   -1.2920 H         1 <0>         0.0571
     40 H13         1.6764    1.3215   -2.1236 H         1 <0>         0.0612
     41 H14         2.2187   -0.0421   -1.0878 H         1 <0>         0.0684
     42 H15         1.9179    1.3758    0.9364 H         1 <0>         0.0851
     43 H16         1.3755    2.7394   -0.0994 H         1 <0>         0.0723
     44 H17        -0.6059    0.9715    2.1031 H         1 <0>         0.1271
     45 H18        -0.4785    2.6440    1.4605 H         1 <0>         0.1078
     46 H19        -0.3495    2.5491   -1.5630 H         1 <0>         0.1358
     47 H20        -0.8357    0.8740   -1.9922 H         1 <0>         0.1353
     48 H21        -3.1004    1.4549   -2.5563 H         1 <0>         0.1294
     49 H22        -4.1898    1.3950   -1.1293 H         1 <0>         0.1204
     50 H23        -2.9956    0.0814   -1.4034 H         1 <0>         0.1208
     51 H24        -3.4304    1.1815    3.1019 H         1 <0>         0.4433
     52 H25        -8.8210    4.9068    7.6542 H         1 <0>         0.1126
     53 H26        -8.2688    3.1988    7.5849 H         1 <0>         0.0839
     54 H27        -8.1191    4.2506    6.1364 H         1 <0>         0.0881
     55 H28        -4.5447    4.0273    9.6562 H         1 <0>         0.4259
     56 H29        -1.3939    2.7564    8.4365 H         1 <0>         0.4296
     57 H30        -1.1010    1.9269    4.9394 H         1 <0>         0.4254
     58 H31        -7.0276    3.0640    1.0335 H         1 <0>         0.0711
     59 H32        -5.3674    2.3901    0.9060 H         1 <0>         0.0498
     60 H33        -5.6051    4.1573    1.1234 H         1 <0>         0.0876
     61 H34        -2.4143    2.9696   -0.8317 H         1 <0>         0.4553
@<TRIPOS>BOND
     1    1    2 1
     2    1   37 1
     3    1   38 1
     4    1   39 1
     5    2    3 1
     6    2   40 1
     7    2   41 1
     8    3    4 1
     9    3   42 1
    10    3   43 1
    11    4    5 1
    12    4   10 1
    13    4    6 1
    14    6    7 1
    15    6   44 1
    16    6   45 1
    17    7    8 1
    18    7    9 1
    19    7   12 1
    20    9   10 1
    21    9   11 1
    22    9   61 1
    23   10   46 1
    24   10   47 1
    25   11   48 1
    26   11   49 1
    27   11   50 1
    28   12   13 2
    29   12   14 am
    30   14   15 1
    31   14   51 1
    32   15   16 1
    33   15   17 1
    34   15   33 1
    35   17   18 1
    36   17   27 1
    37   17   19 1
    38   19   20 1
    39   19   21 1
    40   19   32 1
    41   21   22 1
    42   21   23 1
    43   21   31 1
    44   23   24 1
    45   23   25 1
    46   23   30 1
    47   25   26 1
    48   25   27 1
    49   25   28 1
    50   28   29 1
    51   29   52 1
    52   29   53 1
    53   29   54 1
    54   30   55 1
    55   31   56 1
    56   32   57 1
    57   33   34 1
    58   33   35 1
    59   33   36 1
    60   35   58 1
    61   35   59 1
    62   35   60 1
@<TRIPOS>MOLECULE
ZINC39533975
   64    67     0     0     0
SMALL
USER_CHARGES

@<TRIPOS>ATOM
      1 C1          0.0847    1.7290   -4.7751 C.3       1 <0>        -0.1504
      2 C2          0.0752    0.2027   -4.8807 C.3       1 <0>         0.0564
      3 O1          0.6322   -0.3606   -3.6914 O.3       1 <0>        -0.2432
      4 N1          0.6711   -1.8231   -3.6873 N.3       1 <0>        -0.5048
      5 C3          1.2540   -2.3307   -2.4381 C.3       1 <0>         0.0595
      6 C4          1.3985   -3.8514   -2.5237 C.3       1 <0>         0.1419
      7 H1          0.4264   -4.2975   -2.7340 H         1 <0>         0.0621
      8 C5          2.3620   -4.2031   -3.6278 C.ar      1 <0>        -0.0862
      9 C6          3.7248   -4.1251   -3.4039 C.ar      1 <0>        -0.0929
     10 C7          4.6117   -4.4455   -4.4115 C.ar      1 <0>        -0.1098
     11 C8          4.1321   -4.8488   -5.6563 C.ar      1 <0>        -0.0202
     12 C9          2.7580   -4.9260   -5.8761 C.ar      1 <0>        -0.0988
     13 C10         1.8803   -4.6081   -4.8596 C.ar      1 <0>        -0.0928
     14 C11         5.0804   -5.1940   -6.7433 C.ar      1 <0>        -0.0852
     15 C12         6.1220   -4.3267   -7.0647 C.ar      1 <0>        -0.0895
     16 C13         7.0018   -4.6524   -8.0769 C.ar      1 <0>        -0.1249
     17 C14         6.8532   -5.8382   -8.7747 C.ar      1 <0>        -0.0961
     18 C15         5.8232   -6.7055   -8.4644 C.ar      1 <0>        -0.1435
     19 C16         4.9363   -6.3939   -7.4461 C.ar      1 <0>         0.1175
     20 O2          3.9269   -7.2485   -7.1360 O.3       1 <0>        -0.4933
     21 N2          1.9080   -4.3676   -1.2463 N.3       1 <0>        -0.5269
     22 C17         2.0719   -5.8273   -1.2958 C.3       1 <0>         0.0229
     23 C18         2.6592   -6.3169    0.0298 C.3       1 <0>        -0.0019
     24 N3          1.7607   -5.9449    1.1307 N.4       1 <0>        -0.5082
     25 C19         1.6265   -4.4831    1.1827 C.3       1 <0>         0.0950
     26 H2          2.6078   -4.0333    1.3334 H         1 <0>         0.1610
     27 C20         1.0306   -3.9782   -0.1333 C.3       1 <0>         0.0309
     28 C21         0.7188   -4.1023    2.3238 C.ar      1 <0>        -0.1692
     29 C22        -0.1471   -5.0361    2.8597 C.ar      1 <0>        -0.1157
     30 C23        -0.9804   -4.6873    3.9062 C.ar      1 <0>        -0.1088
     31 C24        -0.9493   -3.4036    4.4196 C.ar      1 <0>        -0.0758
     32 C25        -0.0851   -2.4666    3.8877 C.ar      1 <0>        -0.1288
     33 C26         0.7560   -2.8157    2.8408 C.ar      1 <0>         0.1423
     34 O3          1.6112   -1.8971    2.3194 O.3       1 <0>        -0.4910
     35 H3         -0.5088    2.0374   -3.9145 H         1 <0>         0.0617
     36 H4          1.1100    2.0784   -4.6533 H         1 <0>         0.0664
     37 H5         -0.3401    2.1587   -5.6823 H         1 <0>         0.0794
     38 H6         -0.9501   -0.1466   -5.0025 H         1 <0>         0.0486
     39 H7          0.6687   -0.1057   -5.7414 H         1 <0>         0.0608
     40 H8         -0.2482   -2.2096   -3.8406 H         1 <0>         0.3324
     41 H9          2.2350   -1.8805   -2.2857 H         1 <0>         0.1013
     42 H10         0.6027   -2.0740   -1.6026 H         1 <0>         0.0420
     43 H11         4.0954   -3.8125   -2.4388 H         1 <0>         0.1289
     44 H12         5.6756   -4.3836   -4.2358 H         1 <0>         0.1242
     45 H13         2.3808   -5.2375   -6.8390 H         1 <0>         0.1191
     46 H14         0.8153   -4.6718   -5.0275 H         1 <0>         0.1194
     47 H15         6.2408   -3.4002   -6.5225 H         1 <0>         0.1286
     48 H16         7.8089   -3.9792   -8.3256 H         1 <0>         0.1303
     49 H17         7.5453   -6.0867   -9.5657 H         1 <0>         0.1309
     50 H18         5.7119   -7.6291   -9.0129 H         1 <0>         0.1325
     51 H19         3.1116   -7.0904   -7.6313 H         1 <0>         0.3879
     52 H20         1.1019   -6.2968   -1.4593 H         1 <0>         0.0639
     53 H21         2.7457   -6.0902   -2.1112 H         1 <0>         0.1329
     54 H22         2.7682   -7.4011    0.0005 H         1 <0>         0.1439
     55 H23         3.6352   -5.8577    0.1864 H         1 <0>         0.1436
     56 H24         0.8538   -6.3605    0.9795 H         1 <0>         0.4222
     57 H25         0.9448   -2.8921   -0.1007 H         1 <0>         0.1225
     58 H26         0.0435   -4.4173   -0.2777 H         1 <0>         0.0647
     59 H27        -0.1733   -6.0393    2.4604 H         1 <0>         0.1196
     60 H28        -1.6571   -5.4184    4.3232 H         1 <0>         0.1397
     61 H29        -1.6015   -3.1335    5.2369 H         1 <0>         0.1420
     62 H30        -0.0611   -1.4642    4.2890 H         1 <0>         0.1448
     63 H31         1.2384   -1.3814    1.5913 H         1 <0>         0.3999
     64 H32         2.1421   -6.2786    2.0032 H         1 <0>         0.4347
@<TRIPOS>BOND
     1    1    2 1
     2    1   35 1
     3    1   36 1
     4    1   37 1
     5    2    3 1
     6    2   38 1
     7    2   39 1
     8    3    4 1
     9    4    5 1
    10    4   40 1
    11    5    6 1
    12    5   41 1
    13    5   42 1
    14    6    7 1
    15    6    8 1
    16    6   21 1
    17    8   13 ar
    18    8    9 ar
    19    9   10 ar
    20    9   43 1
    21   10   11 ar
    22   10   44 1
    23   11   12 ar
    24   11   14 1
    25   12   13 ar
    26   12   45 1
    27   13   46 1
    28   14   19 ar
    29   14   15 ar
    30   15   16 ar
    31   15   47 1
    32   16   17 ar
    33   16   48 1
    34   17   18 ar
    35   17   49 1
    36   18   19 ar
    37   18   50 1
    38   19   20 1
    39   20   51 1
    40   21   27 1
    41   21   22 1
    42   22   23 1
    43   22   52 1
    44   22   53 1
    45   23   24 1
    46   23   54 1
    47   23   55 1
    48   24   25 1
    49   24   56 1
    50   24   64 1
    51   25   26 1
    52   25   27 1
    53   25   28 1
    54   27   57 1
    55   27   58 1
    56   28   33 ar
    57   28   29 ar
    58   29   30 ar
    59   29   59 1
    60   30   31 ar
    61   30   60 1
    62   31   32 ar
    63   31   61 1
    64   32   33 ar
    65   32   62 1
    66   33   34 1
    67   34   63 1
@<TRIPOS>MOLECULE
ZINC43553682
   66    69     0     0     0
SMALL
USER_CHARGES

@<TRIPOS>ATOM
      1 C1          0.3715    1.3042    0.0477 C.3       1 <0>        -0.1669
      2 C2         -0.0589   -0.1678   -0.0456 C.3       1 <0>        -0.0376
      3 C3         -1.5818   -0.2304   -0.0443 C.3       1 <0>        -0.1094
      4 C4         -2.1086    0.4211    1.2352 C.3       1 <0>        -0.1521
      5 C5         -1.5708   -0.2583    2.4805 C.3       1 <0>         0.1225
      6 H1         -1.8004    0.3966    3.3449 H         1 <0>         0.0601
      7 C6         -0.0720   -0.5066    2.4804 C.3       1 <0>        -0.0352
      8 C7          0.4728   -0.9762    1.1324 C.3       1 <0>        -0.0459
      9 H2          1.5752   -0.9073    1.1457 H         1 <0>         0.0917
     10 C8          0.0794   -2.4592    0.9831 C.3       1 <0>        -0.0534
     11 C9          0.1029   -2.8992   -0.4362 C.2       1 <0>        -0.1719
     12 C10         0.2823   -2.1380   -1.5440 C.2       1 <0>         0.0885
     13 N1          0.2427   -2.8005   -2.6950 N.pl3     1 <0>        -0.5360
     14 C11         0.0478   -4.1024   -2.7400 C.cat     1 <0>         0.3037
     15 S1         -0.0959   -4.5243   -1.1156 S.3       1 <0>         0.3346
     16 N2         -0.0209   -4.9235   -3.8544 N.pl3     1 <0>        -0.6374
     17 C12        -0.2468   -6.3618   -3.6916 C.3       1 <0>         0.1361
     18 C13        -0.2791   -7.0217   -5.0461 C.2       1 <0>        -0.2082
     19 C14         0.5231   -8.0244   -5.3055 C.2       1 <0>        -0.1208
     20 C15         0.5334   -0.6544   -1.3718 C.3       1 <0>         0.0019
     21 H3          1.6182   -0.4819   -1.3387 H         1 <0>         0.1248
     22 C16        -0.0482    0.1391   -2.5378 C.3       1 <0>        -0.1604
     23 C17         0.7035   -0.1983   -3.7996 C.2       1 <0>         0.4986
     24 O1          1.7049   -0.8803   -3.7449 O.2       1 <0>        -0.5282
     25 N3          0.2629    0.2578   -4.9889 N.am      1 <0>        -0.6615
     26 C18         0.9051   -0.1323   -6.1693 C.ar      1 <0>         0.1167
     27 C19         0.1676   -0.3348   -7.3284 C.ar      1 <0>        -0.1391
     28 C20         0.8044   -0.7198   -8.4919 C.ar      1 <0>        -0.1000
     29 C21         2.1749   -0.9037   -8.5034 C.ar      1 <0>        -0.1209
     30 C22         2.9121   -0.7033   -7.3507 C.ar      1 <0>        -0.1020
     31 C23         2.2820   -0.3122   -6.1856 C.ar      1 <0>        -0.1175
     32 C24         0.6714    0.7297    3.0030 C.3       1 <0>        -0.1513
     33 C25         0.2022   -1.6182    3.5282 C.3       1 <0>         0.0809
     34 O2         -0.2376   -1.1790    4.8149 O.3       1 <0>        -0.5660
     35 O3         -2.2735   -1.4865    2.7040 O.3       1 <0>        -0.5676
     36 H4          1.4537    1.3596    0.1654 H         1 <0>         0.0679
     37 H5          0.0778    1.8270   -0.8626 H         1 <0>         0.0658
     38 H6         -0.1118    1.7703    0.9064 H         1 <0>         0.0829
     39 H7         -1.9950    0.3055   -0.8988 H         1 <0>         0.0688
     40 H8         -1.9093   -1.2705   -0.0842 H         1 <0>         0.0698
     41 H9         -1.8871    1.4856    1.2511 H         1 <0>         0.0806
     42 H10        -3.2080    0.3267    1.2336 H         1 <0>         0.0691
     43 H11         0.7952   -3.0825    1.5320 H         1 <0>         0.0989
     44 H12        -0.9231   -2.6265    1.3766 H         1 <0>         0.1266
     45 H13         0.0806   -4.5459   -4.7421 H         1 <0>         0.4280
     46 H14         0.5597   -6.7914   -3.0974 H         1 <0>         0.0971
     47 H15        -1.1981   -6.5252   -3.1851 H         1 <0>         0.1022
     48 H16        -0.9636   -6.6680   -5.8029 H         1 <0>         0.1273
     49 H17         1.2076   -8.3781   -4.5487 H         1 <0>         0.1081
     50 H18         0.4999   -8.4972   -6.2762 H         1 <0>         0.1184
     51 H19        -1.1005   -0.1166   -2.6624 H         1 <0>         0.1094
     52 H20         0.0448    1.2058   -2.3337 H         1 <0>         0.1378
     53 H21        -0.4993    0.8566   -5.0265 H         1 <0>         0.4181
     54 H22        -0.9028   -0.1916   -7.3200 H         1 <0>         0.1273
     55 H23         0.2314   -0.8778   -9.3936 H         1 <0>         0.1319
     56 H24         2.6706   -1.2049   -9.4145 H         1 <0>         0.1296
     57 H25         3.9823   -0.8481   -7.3628 H         1 <0>         0.1301
     58 H26         2.8589   -0.1509   -5.2869 H         1 <0>         0.1386
     59 H27         0.4504    0.8660    4.0616 H         1 <0>         0.0782
     60 H28         1.7444    0.5914    2.8707 H         1 <0>         0.0626
     61 H29         0.3474    1.6101    2.4480 H         1 <0>         0.0635
     62 H30        -0.3386   -2.5224    3.2485 H         1 <0>         0.0604
     63 H31         1.2709   -1.8299    3.5622 H         1 <0>         0.0411
     64 H32        -0.0970   -1.8252    5.5204 H         1 <0>         0.3831
     65 H33        -3.2259   -1.3773    2.8305 H         1 <0>         0.3805
     66 H34         0.3708   -2.3300   -3.5332 H         1 <0>         0.4256
@<TRIPOS>BOND
     1    1    2 1
     2    1   36 1
     3    1   37 1
     4    1   38 1
     5    2    8 1
     6    2   20 1
     7    2    3 1
     8    3    4 1
     9    3   39 1
    10    3   40 1
    11    4    5 1
    12    4   41 1
    13    4   42 1
    14    5    6 1
    15    5    7 1
    16    5   35 1
    17    7    8 1
    18    7   32 1
    19    7   33 1
    20    8    9 1
    21    8   10 1
    22   10   11 1
    23   10   43 1
    24   10   44 1
    25   11   15 1
    26   11   12 2
    27   12   13 1
    28   12   20 1
    29   13   14 2
    30   13   66 1
    31   14   15 1
    32   14   16 1
    33   16   17 1
    34   16   45 1
    35   17   18 1
    36   17   46 1
    37   17   47 1
    38   18   19 2
    39   18   48 1
    40   19   49 1
    41   19   50 1
    42   20   21 1
    43   20   22 1
    44   22   23 1
    45   22   51 1
    46   22   52 1
    47   23   24 2
    48   23   25 am
    49   25   26 1
    50   25   53 1
    51   26   31 ar
    52   26   27 ar
    53   27   28 ar
    54   27   54 1
    55   28   29 ar
    56   28   55 1
    57   29   30 ar
    58   29   56 1
    59   30   31 ar
    60   30   57 1
    61   31   58 1
    62   32   59 1
    63   32   60 1
    64   32   61 1
    65   33   34 1
    66   33   62 1
    67   33   63 1
    68   34   64 1
    69   35   65 1
@<TRIPOS>MOLECULE
ZINC63272281
   51    54     0     0     0
SMALL
USER_CHARGES

@<TRIPOS>ATOM
      1 C1         -0.0169    1.3986    0.0097 C.ar      1 <0>         0.0533
      2 C2          1.1089    2.1429    0.0030 C.ar      1 <0>        -0.1879
      3 C3          2.3855    1.5158   -0.0130 C.ar      1 <0>         0.3298
      4 N1          3.6000    2.0090   -0.0224 N.pl3     1 <0>        -0.5759
      5 C4          4.5566    0.8968   -0.0378 C.3       1 <0>         0.0590
      6 C5          3.7244   -0.3660   -0.0363 C.2       1 <0>         0.0788
      7 C6          2.4332    0.0361   -0.0214 C.ar      1 <0>        -0.1601
      8 C7          1.1630   -0.6994   -0.0127 C.ar      1 <0>        -0.0087
      9 C8          0.0021   -0.0041    0.0020 C.ar      1 <0>        -0.0735
     10 Cl1        -1.5024   -0.8703    0.0123 Cl        1 <0>        -0.0122
     11 C9          4.2312   -1.7852   -0.0489 C.3       1 <0>        -0.1093
     12 C10         4.5075   -2.2153   -1.4909 C.3       1 <0>         0.1234
     13 N2          5.0002   -3.5949   -1.5032 N.am      1 <0>        -0.7047
     14 C11         5.3116   -4.1889   -2.6722 C.2       1 <0>         0.5159
     15 O1          5.1839   -3.5810   -3.7146 O.2       1 <0>        -0.4986
     16 C12         5.8143   -5.5963   -2.6847 C.2       1 <0>         0.5071
     17 O2          5.9421   -6.2042   -1.6422 O.2       1 <0>        -0.4966
     18 N3          6.1257   -6.1903   -3.8537 N.am      1 <0>        -0.6748
     19 C13         6.6184   -7.5699   -3.8659 C.3       1 <0>         0.2400
     20 H1          6.4423   -8.0564   -2.9065 H         1 <0>         0.1473
     21 C14         6.0007   -8.3619   -5.0029 C.2       1 <0>        -0.2223
     22 C15         6.7876   -9.0819   -5.7787 C.2       1 <0>         0.0090
     23 C16         6.7338   -9.8321   -7.1088 C.3       1 <0>        -0.0763
     24 C17         8.1877   -9.9464   -7.6166 C.3       1 <0>        -0.1236
     25 C18         8.9764   -8.9244   -6.7458 C.3       1 <0>        -0.1066
     26 C19         8.2698   -9.1226   -5.3929 C.3       1 <0>        -0.0443
     27 H2          8.5616  -10.0455   -4.8916 H         1 <0>         0.1388
     28 S1          8.4062   -7.6355   -4.3287 S.3       1 <0>        -0.2643
     29 C20         4.5486   -8.3278   -5.2359 C.2       1 <0>         0.5748
     30 O3          4.0642   -8.9670   -6.1501 O.2       1 <0>        -0.5259
     31 N4          3.7550   -7.5881   -4.4362 N.am      1 <0>        -0.8511
     32 H3         -0.9715    1.9036    0.0262 H         1 <0>         0.1713
     33 H4          1.0401    3.2207    0.0094 H         1 <0>         0.1716
     34 H5          5.1701    0.9413   -0.9377 H         1 <0>         0.1801
     35 H6          5.1878    0.9318    0.8501 H         1 <0>         0.1807
     36 H7          1.1550   -1.7793   -0.0180 H         1 <0>         0.1709
     37 H8          5.1518   -1.8474    0.5315 H         1 <0>         0.1254
     38 H9          3.4805   -2.4430    0.3890 H         1 <0>         0.1210
     39 H10         3.5870   -2.1531   -2.0713 H         1 <0>         0.0873
     40 H11         5.2582   -1.5575   -1.9288 H         1 <0>         0.0868
     41 H12         5.1024   -4.0808   -0.6699 H         1 <0>         0.4204
     42 H13         6.0235   -5.7044   -4.6870 H         1 <0>         0.4244
     43 H14         6.3121  -10.8260   -6.9591 H         1 <0>         0.0997
     44 H15         6.1312   -9.2754   -7.8264 H         1 <0>         0.0977
     45 H16         8.5686  -10.9556   -7.4596 H         1 <0>         0.0810
     46 H17         8.2463   -9.6751   -8.6707 H         1 <0>         0.0851
     47 H18        10.0320   -9.1890   -6.6835 H         1 <0>         0.0886
     48 H19         8.8468   -7.9070   -7.1148 H         1 <0>         0.0888
     49 H20         4.1413   -7.0783   -3.7070 H         1 <0>         0.3927
     50 H21         2.7975   -7.5656   -4.5898 H         1 <0>         0.4068
     51 H22         3.8281    2.9518   -0.0197 H         1 <0>         0.4590
@<TRIPOS>BOND
     1    1    9 ar
     2    1    2 ar
     3    1   32 1
     4    2    3 ar
     5    2   33 1
     6    3    7 ar
     7    3    4 2
     8    4    5 1
     9    4   51 1
    10    5    6 1
    11    5   34 1
    12    5   35 1
    13    6    7 2
    14    6   11 1
    15    7    8 ar
    16    8    9 ar
    17    8   36 1
    18    9   10 1
    19   11   12 1
    20   11   37 1
    21   11   38 1
    22   12   13 1
    23   12   39 1
    24   12   40 1
    25   13   14 am
    26   13   41 1
    27   14   15 2
    28   14   16 1
    29   16   17 2
    30   16   18 am
    31   18   19 1
    32   18   42 1
    33   19   20 1
    34   19   28 1
    35   19   21 1
    36   21   22 2
    37   21   29 1
    38   22   26 1
    39   22   23 1
    40   23   24 1
    41   23   43 1
    42   23   44 1
    43   24   25 1
    44   24   45 1
    45   24   46 1
    46   25   26 1
    47   25   47 1
    48   25   48 1
    49   26   27 1
    50   26   28 1
    51   29   30 2
    52   29   31 am
    53   31   49 1
    54   31   50 1
@<TRIPOS>MOLECULE
ZINC09009590
   63    67     0     0     0
SMALL
USER_CHARGES
(4R)-6-amino-4-[3-[[4-(4-fluorophenyl)piperazin-1-yl]methyl]-4-methoxy-phenyl]-3-methyl-2,4-dihydropyrano[6,5-c]pyrazole-5-carbonitrile
@<TRIPOS>ATOM
      1 C1         -0.2962   -1.2322    4.9538 C.3       1 <0>        -0.0992
      2 C2         -1.3061   -0.4906    5.7912 C.2       1 <0>         0.1419
      3 C3         -2.4253    0.0990    5.3445 C.2       1 <0>        -0.2815
      4 C4         -3.0879    0.6771    6.4496 C.2       1 <0>         0.2678
      5 N1         -2.3795    0.4366    7.5145 N.2       1 <0>        -0.2507
      6 N2         -1.2480   -0.2997    7.1295 N.pl3     1 <0>        -0.4600
      7 H1         -0.5250   -0.6262    7.7383 H         1 <0>         0.4602
      8 O1         -4.2631    1.3483    6.3153 O.3       1 <0>        -0.2107
      9 C5         -4.9208    1.2205    5.1458 C.2       1 <0>         0.4548
     10 C6         -4.3888    0.6964    4.0220 C.2       1 <0>        -0.2857
     11 C7         -2.9712    0.1890    3.9423 C.3       1 <0>         0.1307
     12 H2         -2.9582   -0.7973    3.4784 H         1 <0>         0.0974
     13 C8         -2.1339    1.1438    3.1308 C.ar      1 <0>        -0.0936
     14 C9         -2.0149    2.4639    3.5250 C.ar      1 <0>        -0.0244
     15 C10        -1.2482    3.3410    2.7830 C.ar      1 <0>        -0.1975
     16 C11        -0.5971    2.8965    1.6412 C.ar      1 <0>         0.1443
     17 C12        -0.7181    1.5718    1.2479 C.ar      1 <0>        -0.1911
     18 C13        -1.4905    0.6997    1.9907 C.ar      1 <0>        -0.0515
     19 C14        -0.0127    1.0858    0.0080 C.3       1 <0>         0.0618
     20 C15        -2.0582    0.9664   -1.2830 C.3       1 <0>         0.0010
     21 C16        -2.7940    1.5574   -2.4879 C.3       1 <0>         0.0270
     22 N3         -2.0121    1.3078   -3.7068 N.pl3     1 <0>        -0.4834
     23 C17        -0.6771    1.9138   -3.6059 C.3       1 <0>         0.0190
     24 C18         0.0588    1.3229   -2.4010 C.3       1 <0>         0.0032
     25 C19        -2.6883    1.7710   -4.8396 C.ar      1 <0>         0.0770
     26 C20        -2.0803    2.6896   -5.6853 C.ar      1 <0>        -0.1339
     27 C21        -2.7484    3.1421   -6.8063 C.ar      1 <0>        -0.1266
     28 C22        -4.0274    2.6886   -7.0815 C.ar      1 <0>         0.0945
     29 C23        -4.6375    1.7768   -6.2368 C.ar      1 <0>        -0.1266
     30 C24        -3.9712    1.3175   -5.1175 C.ar      1 <0>        -0.0985
     31 F1         -4.6808    3.1362   -8.1760 F         1 <0>        -0.1319
     32 O2          0.1576    3.7576    0.9092 O.3       1 <0>        -0.3315
     33 C25         0.2370    5.1067    1.3736 C.3       1 <0>         0.0236
     34 C26        -5.2087    0.6183    2.8505 C.1       1 <0>         0.2713
     35 N4         -5.8592    0.5564    1.9212 N.1       1 <0>        -0.4441
     36 N5         -6.2223    1.6538    5.0944 N.pl3     1 <0>        -0.8269
     37 H3          0.4668   -0.5367    4.6042 H         1 <0>         0.0877
     38 H4          0.1711   -2.0124    5.5545 H         1 <0>         0.0823
     39 H5         -0.7962   -1.6838    4.0969 H         1 <0>         0.0903
     40 H6         -2.5216    2.8093    4.4141 H         1 <0>         0.1297
     41 H7         -1.1552    4.3718    3.0915 H         1 <0>         0.1390
     42 H8         -1.5883   -0.3308    1.6826 H         1 <0>         0.1404
     43 H9          0.0021   -0.0041    0.0020 H         1 <0>         0.1377
     44 H10         1.0099    1.4631    0.0003 H         1 <0>         0.1367
     45 H11        -1.9595   -0.1116   -1.4101 H         1 <0>         0.1414
     46 H12        -2.6222    1.1756   -0.3740 H         1 <0>         0.1352
     47 H13        -2.9168    2.6314   -2.3481 H         1 <0>         0.0678
     48 H14        -3.7734    1.0883   -2.5817 H         1 <0>         0.1279
     49 H15        -0.7757    2.9919   -3.4788 H         1 <0>         0.0708
     50 H16        -0.1129    1.7049   -4.5149 H         1 <0>         0.1303
     51 H17         1.0382    1.7920   -2.3072 H         1 <0>         0.1382
     52 H18         0.1818    0.2489   -2.5406 H         1 <0>         0.1415
     53 H19        -1.0843    3.0467   -5.4688 H         1 <0>         0.1370
     54 H20        -2.2742    3.8531   -7.4667 H         1 <0>         0.1428
     55 H21        -5.6351    1.4241   -6.4535 H         1 <0>         0.1450
     56 H22        -4.4473    0.6060   -4.4591 H         1 <0>         0.1387
     57 H23         0.8685    5.6862    0.7003 H         1 <0>         0.1100
     58 H24        -0.7621    5.5416    1.3991 H         1 <0>         0.0637
     59 H25         0.6652    5.1212    2.3759 H         1 <0>         0.0664
     60 H26        -6.6377    2.0362    5.8832 H         1 <0>         0.4159
     61 H27        -6.7266    1.5775    4.2694 H         1 <0>         0.4278
     62 N6         -0.7267    1.6001   -1.1801 N.4       1 <0>        -0.3963
     63 H28        -0.8467    2.6152   -1.0838 H         1 <0>         0.4260
@<TRIPOS>BOND
     1    1    2 1
     2    1   37 1
     3    1   38 1
     4    1   39 1
     5    2    6 1
     6    2    3 2
     7    3   11 1
     8    3    4 1
     9    4    5 2
    10    4    8 1
    11    5    6 1
    12    6    7 1
    13    8    9 1
    14    9   10 2
    15    9   36 1
    16   10   11 1
    17   10   34 1
    18   11   12 1
    19   11   13 1
    20   13   18 ar
    21   13   14 ar
    22   14   15 ar
    23   14   40 1
    24   15   16 ar
    25   15   41 1
    26   16   17 ar
    27   16   32 1
    28   17   18 ar
    29   17   19 1
    30   18   42 1
    31   19   43 1
    32   19   44 1
    33   19   62 1
    34   20   21 1
    35   20   45 1
    36   20   46 1
    37   20   62 1
    38   21   22 1
    39   21   47 1
    40   21   48 1
    41   22   23 1
    42   22   25 1
    43   23   24 1
    44   23   49 1
    45   23   50 1
    46   24   51 1
    47   24   52 1
    48   24   62 1
    49   25   30 ar
    50   25   26 ar
    51   26   27 ar
    52   26   53 1
    53   27   28 ar
    54   27   54 1
    55   28   29 ar
    56   28   31 1
    57   29   30 ar
    58   29   55 1
    59   30   56 1
    60   32   33 1
    61   33   57 1
    62   33   58 1
    63   33   59 1
    64   34   35 3
    65   36   60 1
    66   36   61 1
    67   62   63 1
@<TRIPOS>MOLECULE
ZINC06530519
   59    61     0     0     0
SMALL
USER_CHARGES

@<TRIPOS>ATOM
      1 C1         -0.0167    1.3781    0.0096 C.ar      1 <0>        -0.1199
      2 C2          1.1709    2.0855    0.0021 C.ar      1 <0>        -0.1155
      3 C3          2.3773    1.4107   -0.0130 C.ar      1 <0>        -0.1175
      4 C4          2.3960    0.0285   -0.0201 C.ar      1 <0>        -0.0881
      5 C5          1.2084   -0.6789   -0.0117 C.ar      1 <0>        -0.1193
      6 C6          0.0021   -0.0041    0.0020 C.ar      1 <0>        -0.1170
      7 C7          3.7112   -0.7071   -0.0376 C.3       1 <0>        -0.0753
      8 C8          4.1714   -0.9633    1.3989 C.3       1 <0>        -0.0840
      9 C9          3.1857   -1.9090    2.0891 C.3       1 <0>        -0.1339
     10 C10         3.6307   -2.1357    3.5373 C.3       1 <0>         0.1075
     11 N1          5.0214   -2.6095    3.5361 N.am      1 <0>        -0.5838
     12 C11         6.0357   -1.8213    2.8229 C.3       1 <0>         0.0954
     13 C12         5.5638   -1.5981    1.3827 C.3       1 <0>        -0.1335
     14 C13         5.3604   -3.7455    4.1774 C.2       1 <0>         0.4966
     15 O1          4.5140   -4.3871    4.7628 O.2       1 <0>        -0.5314
     16 C14         6.7913   -4.2184    4.1669 C.3       1 <0>        -0.0306
     17 N2          6.8992   -5.4690    4.9300 N.4       1 <0>        -0.4963
     18 C15         8.2940   -5.9299    4.9198 C.3       1 <0>        -0.0049
     19 C16         8.4064   -7.2325    5.7146 C.3       1 <0>        -0.1116
     20 C17         9.8373   -7.7054    5.7041 C.ar      1 <0>        -0.0482
     21 C18        10.2805   -8.5446    4.6991 C.ar      1 <0>        -0.1306
     22 C19        11.5930   -8.9784    4.6895 C.ar      1 <0>        -0.0118
     23 C20        12.4624   -8.5726    5.6847 C.ar      1 <0>        -0.6634
     24 C21        12.0194   -7.7326    6.6893 C.ar      1 <0>        -0.0118
     25 C22        10.7080   -7.2954    6.6965 C.ar      1 <0>        -0.1306
     26 S1         14.1350   -9.1264    5.6732 S.o2      1 <0>         2.6970
     27 O2         14.5997   -9.0432    7.0135 O.2       1 <0>        -0.9543
     28 O3         14.1560  -10.3396    4.9335 O.2       1 <0>        -0.9543
     29 N3         15.0097   -8.0244    4.7998 N.pl3     1 <0>        -1.2479
     30 H1         -0.9591    1.9053    0.0259 H         1 <0>         0.1235
     31 H2          1.1563    3.1654    0.0076 H         1 <0>         0.1236
     32 H3          3.3051    1.9634   -0.0196 H         1 <0>         0.1205
     33 H4          1.2231   -1.7588   -0.0176 H         1 <0>         0.1190
     34 H5         -0.9258   -0.5567    0.0082 H         1 <0>         0.1230
     35 H6          3.5884   -1.6586   -0.5549 H         1 <0>         0.0731
     36 H7          4.4573   -0.1052   -0.5563 H         1 <0>         0.0768
     37 H8          4.2091   -0.0190    1.9420 H         1 <0>         0.0797
     38 H9          2.1896   -1.4666    2.0795 H         1 <0>         0.0913
     39 H10         3.1659   -2.8624    1.5611 H         1 <0>         0.0698
     40 H11         3.5642   -1.1991    4.0909 H         1 <0>         0.0823
     41 H12         2.9900   -2.8843    4.0035 H         1 <0>         0.1005
     42 H13         6.1654   -0.8590    3.3182 H         1 <0>         0.0891
     43 H14         6.9819   -2.3623    2.8177 H         1 <0>         0.0838
     44 H15         5.5216   -2.5544    0.8614 H         1 <0>         0.0722
     45 H16         6.2603   -0.9343    0.8704 H         1 <0>         0.0885
     46 H17         7.1092   -4.3914    3.1388 H         1 <0>         0.1614
     47 H18         7.4281   -3.4594    4.6213 H         1 <0>         0.1617
     48 H19         6.6049   -5.3088    5.8817 H         1 <0>         0.4366
     49 H20         8.6120   -6.1030    3.8917 H         1 <0>         0.1379
     50 H21         8.9308   -5.1709    5.3742 H         1 <0>         0.1380
     51 H22         8.0885   -7.0594    6.7427 H         1 <0>         0.1052
     52 H23         7.7696   -7.9915    5.2602 H         1 <0>         0.1051
     53 H24         9.6013   -8.8617    3.9216 H         1 <0>         0.1383
     54 H25        11.9392   -9.6347    3.9047 H         1 <0>         0.1510
     55 H26        12.6985   -7.4158    7.4670 H         1 <0>         0.1510
     56 H27        10.3628   -6.6361    7.4792 H         1 <0>         0.1384
     57 H28        14.5684   -7.2522    4.4126 H         1 <0>         0.4152
     58 H29        15.9633   -8.1511    4.6754 H         1 <0>         0.4258
     59 H30         6.3097   -6.1716    4.5094 H         1 <0>         0.4365
@<TRIPOS>BOND
     1    1    6 ar
     2    1    2 ar
     3    1   30 1
     4    2    3 ar
     5    2   31 1
     6    3    4 ar
     7    3   32 1
     8    4    5 ar
     9    4    7 1
    10    5    6 ar
    11    5   33 1
    12    6   34 1
    13    7    8 1
    14    7   35 1
    15    7   36 1
    16    8   13 1
    17    8    9 1
    18    8   37 1
    19    9   10 1
    20    9   38 1
    21    9   39 1
    22   10   11 1
    23   10   40 1
    24   10   41 1
    25   11   12 1
    26   11   14 am
    27   12   13 1
    28   12   42 1
    29   12   43 1
    30   13   44 1
    31   13   45 1
    32   14   15 2
    33   14   16 1
    34   16   17 1
    35   16   46 1
    36   16   47 1
    37   17   18 1
    38   17   48 1
    39   17   59 1
    40   18   19 1
    41   18   49 1
    42   18   50 1
    43   19   20 1
    44   19   51 1
    45   19   52 1
    46   20   25 ar
    47   20   21 ar
    48   21   22 ar
    49   21   53 1
    50   22   23 ar
    51   22   54 1
    52   23   24 ar
    53   23   26 1
    54   24   25 ar
    55   24   55 1
    56   25   56 1
    57   26   27 2
    58   26   28 2
    59   26   29 1
    60   29   57 1
    61   29   58 1
@<TRIPOS>MOLECULE
ZINC39631676
   71    73     0     0     0
SMALL
USER_CHARGES

@<TRIPOS>ATOM
      1 C1          0.6574    1.6954   -0.3012 C.3       1 <0>        -0.1266
      2 C2          0.5240    0.1954   -0.2446 C.ar      1 <0>        -0.0555
      3 C3         -0.2846   -0.4593   -1.1581 C.ar      1 <0>        -0.1077
      4 C4         -0.4130   -1.8310   -1.1136 C.ar      1 <0>        -0.0676
      5 C5          0.2751   -2.5642   -0.1440 C.ar      1 <0>        -0.1589
      6 C6          1.0909   -1.9003    0.7764 C.ar      1 <0>         0.1296
      7 C7          1.2146   -0.5217    0.7166 C.ar      1 <0>         0.0609
      8 F1          2.0063    0.1238    1.6007 F         1 <0>        -0.1166
      9 F2          1.7600   -2.6008    1.7181 F         1 <0>        -0.1078
     10 C8          0.1409   -4.0341   -0.0914 C.2       1 <0>         0.5925
     11 O1          0.1709   -4.6093    0.9792 O.2       1 <0>        -0.5094
     12 N1         -0.0150   -4.7378   -1.2302 N.am      1 <0>        -0.6180
     13 C9          0.0307   -4.2335   -2.6229 C.3       1 <0>         0.1043
     14 C10         0.7789   -5.3316   -3.4114 C.3       1 <0>        -0.1150
     15 H1          1.8396   -5.0910   -3.4838 H         1 <0>         0.1112
     16 C11         0.5758   -6.6139   -2.5871 C.3       1 <0>        -0.0704
     17 C12        -0.2644   -6.1924   -1.3728 C.3       1 <0>         0.1092
     18 C13        -0.1709   -7.6589   -3.4105 C.3       1 <0>        -0.1464
     19 C14        -0.3095   -8.9446   -2.5904 C.3       1 <0>        -0.0071
     20 N2          1.0229   -9.4408   -2.2258 N.4       1 <0>        -0.5043
     21 C15         1.6984   -8.4694   -1.3569 C.3       1 <0>        -0.0111
     22 C16         1.9220   -7.1636   -2.1249 C.3       1 <0>        -0.1342
     23 C17         0.1826   -5.4890   -4.7864 C.2       1 <0>         0.5218
     24 O2         -0.9998   -5.2839   -4.9617 O.2       1 <0>        -0.5219
     25 N3          0.9633   -5.8575   -5.8214 N.am      1 <0>        -0.7195
     26 C18         0.3835   -6.0105   -7.1581 C.3       1 <0>         0.1422
     27 H2         -0.6309   -6.3999   -7.0718 H         1 <0>         0.0917
     28 C19         0.3499   -4.6504   -7.8581 C.3       1 <0>        -0.1685
     29 C20         1.2356   -6.9837   -7.9752 C.3       1 <0>        -0.1335
     30 C21         1.1681   -8.3754   -7.3431 C.3       1 <0>        -0.1112
     31 C22         2.0202   -9.3486   -8.1602 C.3       1 <0>        -0.1499
     32 C23         1.9527  -10.7402   -7.5281 C.3       1 <0>         0.1307
     33 C24         0.5010  -11.2231   -7.5118 C.3       1 <0>        -0.1430
     34 C25         2.8048  -11.7134   -8.3452 C.3       1 <0>        -0.1840
     35 O3          2.4497  -10.6800   -6.1896 O.3       1 <0>        -0.5718
     36 H3          1.4857    1.9620   -0.9577 H         1 <0>         0.0881
     37 H4         -0.2657    2.1280   -0.6869 H         1 <0>         0.0853
     38 H5          0.8488    2.0811    0.7002 H         1 <0>         0.0803
     39 H6         -0.8169    0.1069   -1.9081 H         1 <0>         0.1517
     40 H7         -1.0451   -2.3383   -1.8274 H         1 <0>         0.1471
     41 H8         -0.9786   -4.1056   -3.0141 H         1 <0>         0.1035
     42 H9          0.5789   -3.2925   -2.6685 H         1 <0>         0.0973
     43 H10         0.0649   -6.7241   -0.4801 H         1 <0>         0.0917
     44 H11        -1.3215   -6.3805   -1.5605 H         1 <0>         0.0880
     45 H12        -1.1611   -7.2814   -3.6656 H         1 <0>         0.1266
     46 H13         0.3858   -7.8681   -4.3240 H         1 <0>         0.0992
     47 H14        -0.8803   -8.7380   -1.6851 H         1 <0>         0.1322
     48 H15        -0.8283   -9.6986   -3.1823 H         1 <0>         0.1387
     49 H16         0.9314  -10.3195   -1.7383 H         1 <0>         0.4338
     50 H17         1.0798   -8.2741   -0.4810 H         1 <0>         0.1338
     51 H18         2.6598   -8.8732   -1.0395 H         1 <0>         0.1396
     52 H19         2.5539   -7.3552   -2.9922 H         1 <0>         0.0966
     53 H20         2.4076   -6.4369   -1.4736 H         1 <0>         0.1173
     54 H21         1.9090   -6.0215   -5.6812 H         1 <0>         0.3993
     55 H22        -0.0814   -4.7642   -8.8526 H         1 <0>         0.0707
     56 H23        -0.2571   -3.9571   -7.2759 H         1 <0>         0.0629
     57 H24         1.3643   -4.2610   -7.9444 H         1 <0>         0.0591
     58 H25         0.8566   -7.0296   -8.9961 H         1 <0>         0.0842
     59 H26         2.2699   -6.6397   -7.9868 H         1 <0>         0.0702
     60 H27         1.5472   -8.3295   -6.3221 H         1 <0>         0.0602
     61 H28         0.1339   -8.7194   -7.3315 H         1 <0>         0.0667
     62 H29         1.6411   -9.3945   -9.1811 H         1 <0>         0.0768
     63 H30         3.0544   -9.0045   -8.1718 H         1 <0>         0.0668
     64 H31         0.1219  -11.2690   -8.5327 H         1 <0>         0.0738
     65 H32         0.4529  -12.2146   -7.0615 H         1 <0>         0.0622
     66 H33        -0.1060  -10.5298   -6.9297 H         1 <0>         0.0613
     67 H34         3.8390  -11.3694   -8.3568 H         1 <0>         0.0597
     68 H35         2.7567  -12.7049   -7.8948 H         1 <0>         0.0655
     69 H36         2.4257  -11.7593   -9.3661 H         1 <0>         0.0696
     70 H37         3.3669  -10.3809   -6.1237 H         1 <0>         0.3752
     71 H38         1.5696   -9.5788   -3.0626 H         1 <0>         0.4303
@<TRIPOS>BOND
     1    1    2 1
     2    1   36 1
     3    1   37 1
     4    1   38 1
     5    2    7 ar
     6    2    3 ar
     7    3    4 ar
     8    3   39 1
     9    4    5 ar
    10    4   40 1
    11    5    6 ar
    12    5   10 1
    13    6    7 ar
    14    6    9 1
    15    7    8 1
    16   10   11 2
    17   10   12 am
    18   12   17 1
    19   12   13 1
    20   13   14 1
    21   13   41 1
    22   13   42 1
    23   14   15 1
    24   14   16 1
    25   14   23 1
    26   16   22 1
    27   16   17 1
    28   16   18 1
    29   17   43 1
    30   17   44 1
    31   18   19 1
    32   18   45 1
    33   18   46 1
    34   19   20 1
    35   19   47 1
    36   19   48 1
    37   20   21 1
    38   20   49 1
    39   20   71 1
    40   21   22 1
    41   21   50 1
    42   21   51 1
    43   22   52 1
    44   22   53 1
    45   23   24 2
    46   23   25 am
    47   25   26 1
    48   25   54 1
    49   26   27 1
    50   26   28 1
    51   26   29 1
    52   28   55 1
    53   28   56 1
    54   28   57 1
    55   29   30 1
    56   29   58 1
    57   29   59 1
    58   30   31 1
    59   30   60 1
    60   30   61 1
    61   31   32 1
    62   31   62 1
    63   31   63 1
    64   32   33 1
    65   32   34 1
    66   32   35 1
    67   33   64 1
    68   33   65 1
    69   33   66 1
    70   34   67 1
    71   34   68 1
    72   34   69 1
    73   35   70 1
@<TRIPOS>MOLECULE
ZINC59170398
   52    55     0     0     0
SMALL
USER_CHARGES

@<TRIPOS>ATOM
      1 C1          2.8388    2.9854   -0.0052 C.3       1 <0>        -0.1337
      2 C2          2.4902    1.5876   -0.4474 C.ar      1 <0>        -0.0042
      3 C3          2.8593    1.1482   -1.7050 C.ar      1 <0>        -0.1370
      4 C4          2.5396   -0.1340   -2.1106 C.ar      1 <0>        -0.0074
      5 C5          1.8511   -0.9770   -1.2584 C.ar      1 <0>        -0.7012
      6 C6          1.4828   -0.5380   -0.0004 C.ar      1 <0>        -0.0161
      7 C7          1.8063    0.7428    0.4068 C.ar      1 <0>        -0.1284
      8 S1          1.4425   -2.6110   -1.7758 S.o2      1 <0>         2.6628
      9 O1          0.4010   -3.0597   -0.9195 O.2       1 <0>        -0.9117
     10 O2          1.3005   -2.5660   -3.1890 O.2       1 <0>        -0.8907
     11 N1          2.7578   -3.5672   -1.4625 N.pl3     1 <0>        -0.9156
     12 N2          3.2991   -3.6126   -0.1711 N.pl3     1 <0>        -0.2970
     13 C8          4.3912   -4.2866    0.0542 C.2       1 <0>         0.5209
     14 C9          5.0500   -4.2531    1.3806 C.2       1 <0>        -0.2607
     15 C10         5.8093   -5.3446    1.7341 C.2       1 <0>         0.1366
     16 C11         5.9029   -6.4474    0.7727 C.ar      1 <0>        -0.1860
     17 C12         6.4241   -7.6878    1.1584 C.ar      1 <0>        -0.0054
     18 C13         6.5011   -8.7049    0.2494 C.ar      1 <0>        -0.1480
     19 C14         6.0641   -8.5163   -1.0588 C.ar      1 <0>         0.2131
     20 C15         5.5459   -7.2918   -1.4581 C.ar      1 <0>        -0.1510
     21 C16         5.4626   -6.2522   -0.5500 C.ar      1 <0>         0.1475
     22 O3          4.9614   -5.0504   -0.9227 O.3       1 <0>        -0.2126
     23 O4          6.1456   -9.5366   -1.9503 O.3       1 <0>        -0.4794
     24 C17         4.8991   -3.1006    2.2820 C.2       1 <0>         0.5769
     25 O5          4.1586   -2.1840    1.9788 O.2       1 <0>        -0.5186
     26 N3          5.5811   -3.0599    3.4438 N.am      1 <0>        -0.6442
     27 C18         5.3388   -2.0326    4.3611 C.ar      1 <0>         0.1227
     28 C19         4.0661   -1.4885    4.4766 C.ar      1 <0>        -0.1151
     29 C20         3.8302   -0.4740    5.3835 C.ar      1 <0>        -0.0993
     30 C21         4.8596    0.0004    6.1758 C.ar      1 <0>        -0.1173
     31 C22         6.1279   -0.5389    6.0630 C.ar      1 <0>        -0.0967
     32 C23         6.3691   -1.5581    5.1627 C.ar      1 <0>        -0.1324
     33 H1          3.8158    2.9806    0.4782 H         1 <0>         0.0860
     34 H2          2.8660    3.6448   -0.8727 H         1 <0>         0.0795
     35 H3          2.0869    3.3420    0.6987 H         1 <0>         0.0797
     36 H4          3.3972    1.8068   -2.3708 H         1 <0>         0.1413
     37 H5          2.8273   -0.4771   -3.0934 H         1 <0>         0.1439
     38 H6          0.9446   -1.1965    0.6652 H         1 <0>         0.1431
     39 H7          1.5218    1.0846    1.3910 H         1 <0>         0.1412
     40 H8          3.1534   -4.0957   -2.1731 H         1 <0>         0.4555
     41 H9          6.3184   -5.3874    2.6857 H         1 <0>         0.1894
     42 H10         6.7642   -7.8407    2.1720 H         1 <0>         0.1658
     43 H11         6.9041   -9.6614    0.5477 H         1 <0>         0.1632
     44 H12         5.2082   -7.1518   -2.4744 H         1 <0>         0.1676
     45 H13         5.3598  -10.0995   -1.9767 H         1 <0>         0.4176
     46 H14         6.2400   -3.7431    3.6436 H         1 <0>         0.4143
     47 H15         3.2620   -1.8581    3.8576 H         1 <0>         0.1332
     48 H16         2.8409   -0.0505    5.4738 H         1 <0>         0.1314
     49 H17         4.6725    0.7940    6.8840 H         1 <0>         0.1307
     50 H18         6.9298   -0.1659    6.6830 H         1 <0>         0.1338
     51 H19         7.3588   -1.9821    5.0785 H         1 <0>         0.1298
     52 H20         2.8608   -3.1423    0.5553 H         1 <0>         0.4824
@<TRIPOS>BOND
     1    1    2 1
     2    1   33 1
     3    1   34 1
     4    1   35 1
     5    2    7 ar
     6    2    3 ar
     7    3    4 ar
     8    3   36 1
     9    4    5 ar
    10    4   37 1
    11    5    6 ar
    12    5    8 1
    13    6    7 ar
    14    6   38 1
    15    7   39 1
    16    8    9 2
    17    8   10 2
    18    8   11 1
    19   11   12 1
    20   11   40 1
    21   12   13 2
    22   12   52 1
    23   13   22 1
    24   13   14 1
    25   14   15 2
    26   14   24 1
    27   15   16 1
    28   15   41 1
    29   16   21 ar
    30   16   17 ar
    31   17   18 ar
    32   17   42 1
    33   18   19 ar
    34   18   43 1
    35   19   20 ar
    36   19   23 1
    37   20   21 ar
    38   20   44 1
    39   21   22 1
    40   23   45 1
    41   24   25 2
    42   24   26 am
    43   26   27 1
    44   26   46 1
    45   27   32 ar
    46   27   28 ar
    47   28   29 ar
    48   28   47 1
    49   29   30 ar
    50   29   48 1
    51   30   31 ar
    52   30   49 1
    53   31   32 ar
    54   31   50 1
    55   32   51 1
@<TRIPOS>MOLECULE
ZINC64348708
   60    63     0     0     0
SMALL
USER_CHARGES

@<TRIPOS>ATOM
      1 C1         -1.4366   -1.3755   -0.3031 C.3       1 <0>        -0.1499
      2 C2         -0.2477   -0.4464   -0.0496 C.3       1 <0>        -0.0999
      3 C3          0.4180   -0.8203    1.2763 C.3       1 <0>        -0.1405
      4 C4          0.7648   -0.5917   -1.1874 C.3       1 <0>         0.1521
      5 H1          1.6547   -0.0053   -0.9589 H         1 <0>         0.1168
      6 C5          0.1520   -0.0950   -2.4715 C.2       1 <0>         0.5218
      7 O1         -0.3854   -0.8753   -3.2286 O.2       1 <0>        -0.5211
      8 N1          0.2012    1.2164   -2.7786 N.am      1 <0>        -0.7304
      9 C6         -0.2956    1.6843   -4.0749 C.3       1 <0>         0.1260
     10 C7         -0.1254    3.2019   -4.1688 C.3       1 <0>        -0.1058
     11 C8         -0.6364    3.6832   -5.5023 C.2       1 <0>         0.0691
     12 C9         -1.8679    4.1726   -5.7727 C.ar      1 <0>        -0.1657
     13 C10        -3.0552    4.3938   -4.9385 C.ar      1 <0>        -0.0134
     14 C11        -4.1691    4.9095   -5.5063 C.ar      1 <0>        -0.1494
     15 C12        -4.2181    5.2368   -6.8683 C.ar      1 <0>         0.0552
     16 C13        -3.1681    5.0623   -7.6985 C.ar      1 <0>        -0.2099
     17 C14        -1.9452    4.5270   -7.2079 C.ar      1 <0>         0.3280
     18 N2         -0.8058    4.2668   -7.8017 N.pl3     1 <0>        -0.5845
     19 C15         0.1262    3.7229   -6.8077 C.3       1 <0>         0.0604
     20 N3          1.1337   -2.0017   -1.3358 N.am      1 <0>        -0.7247
     21 C16         2.1120   -2.5263   -0.5714 C.2       1 <0>         0.7205
     22 O2          2.6883   -1.8293    0.2413 O.2       1 <0>        -0.5500
     23 N4          2.4514   -3.8234   -0.7079 N.am      1 <0>        -0.5659
     24 C17         1.7791   -4.6946   -1.6859 C.3       1 <0>         0.1284
     25 C18         1.5542   -6.0477   -1.0629 C.2       1 <0>         0.3422
     26 N5          2.3255   -6.5024   -0.1278 N.2       1 <0>        -0.5413
     27 C19         3.3796   -5.7747    0.3561 C.ar      1 <0>         0.0856
     28 C20         3.4652   -4.4010    0.0719 C.ar      1 <0>         0.1154
     29 C21         4.5195   -3.6509    0.5533 C.ar      1 <0>        -0.1069
     30 C22         5.5035   -4.2589    1.3146 C.ar      1 <0>        -0.1015
     31 C23         5.4339   -5.6122    1.5930 C.ar      1 <0>        -0.1206
     32 C24         4.3729   -6.3761    1.1242 C.ar      1 <0>        -0.0758
     33 O3          0.5228   -6.8052   -1.4907 O.3       1 <0>        -0.4579
     34 H2         -1.9578   -1.0603   -1.2070 H         1 <0>         0.0556
     35 H3         -1.0789   -2.3976   -0.4277 H         1 <0>         0.0574
     36 H4         -2.1201   -1.3306    0.5448 H         1 <0>         0.0632
     37 H5         -0.5963    0.5852   -0.0029 H         1 <0>         0.0833
     38 H6          0.7667   -1.8520    1.2296 H         1 <0>         0.0600
     39 H7          1.2650   -0.1584    1.4569 H         1 <0>         0.0654
     40 H8         -0.3033   -0.7168    2.0869 H         1 <0>         0.0556
     41 H9          0.5654    1.8504   -2.1412 H         1 <0>         0.4099
     42 H10         0.2690    1.2052   -4.8748 H         1 <0>         0.0794
     43 H11        -1.3511    1.4303   -4.1728 H         1 <0>         0.0818
     44 H12        -0.6900    3.6810   -3.3689 H         1 <0>         0.1175
     45 H13         0.9301    3.4559   -4.0709 H         1 <0>         0.1204
     46 H14        -3.0397    4.1480   -3.8869 H         1 <0>         0.1609
     47 H15        -5.0438    5.0730   -4.8943 H         1 <0>         0.1585
     48 H16        -5.1337    5.6451   -7.2701 H         1 <0>         0.1615
     49 H17        -3.2572    5.3304   -8.7409 H         1 <0>         0.1611
     50 H18         0.9984    4.3699   -6.7138 H         1 <0>         0.1756
     51 H19         0.4330    2.7170   -7.0943 H         1 <0>         0.1742
     52 H20         0.6740   -2.5577   -1.9841 H         1 <0>         0.4071
     53 H21         0.8203   -4.2577   -1.9652 H         1 <0>         0.1141
     54 H22         2.4054   -4.8003   -2.5716 H         1 <0>         0.1108
     55 H23         4.5768   -2.5943    0.3367 H         1 <0>         0.1459
     56 H24         6.3291   -3.6741    1.6924 H         1 <0>         0.1317
     57 H25         6.2076   -6.0779    2.1854 H         1 <0>         0.1325
     58 H26         4.3232   -7.4324    1.3439 H         1 <0>         0.1372
     59 H27         0.4479   -7.6579   -1.0409 H         1 <0>         0.4166
     60 H28        -0.6103    4.4132   -8.7405 H         1 <0>         0.4565
@<TRIPOS>BOND
     1    1    2 1
     2    1   34 1
     3    1   35 1
     4    1   36 1
     5    2    3 1
     6    2    4 1
     7    2   37 1
     8    3   38 1
     9    3   39 1
    10    3   40 1
    11    4    5 1
    12    4    6 1
    13    4   20 1
    14    6    7 2
    15    6    8 am
    16    8    9 1
    17    8   41 1
    18    9   10 1
    19    9   42 1
    20    9   43 1
    21   10   11 1
    22   10   44 1
    23   10   45 1
    24   11   19 1
    25   11   12 2
    26   12   17 ar
    27   12   13 ar
    28   13   14 ar
    29   13   46 1
    30   14   15 ar
    31   14   47 1
    32   15   16 ar
    33   15   48 1
    34   16   17 ar
    35   16   49 1
    36   17   18 2
    37   18   19 1
    38   18   60 1
    39   19   50 1
    40   19   51 1
    41   20   21 am
    42   20   52 1
    43   21   22 2
    44   21   23 am
    45   23   28 1
    46   23   24 1
    47   24   25 1
    48   24   53 1
    49   24   54 1
    50   25   26 2
    51   25   33 1
    52   26   27 1
    53   27   32 ar
    54   27   28 ar
    55   28   29 ar
    56   29   30 ar
    57   29   55 1
    58   30   31 ar
    59   30   56 1
    60   31   32 ar
    61   31   57 1
    62   32   58 1
    63   33   59 1
@<TRIPOS>MOLECULE
ZINC12985681
   56    60     0     0     0
SMALL
USER_CHARGES
2-[[2-[(2S)-2-(2,3-dihydro-1,4-benzodioxin-6-yl)pyrrolidin-1-yl]acetyl]amino]-5,6-dihydro-4H-cyclopenta[d]thiophene-3-carboxamide
@<TRIPOS>ATOM
      1 C1          1.1755    1.7826    0.0004 C.ar      1 <0>        -0.1168
      2 C2         -0.0126    1.0758    0.0080 C.ar      1 <0>        -0.0988
      3 C3         -1.2230    1.7520    0.0174 C.ar      1 <0>         0.0819
      4 C4         -1.2384    3.1420    0.0324 C.ar      1 <0>         0.0648
      5 C5         -0.0431    3.8449    0.0226 C.ar      1 <0>        -0.0832
      6 C6          1.1602    3.1646    0.0070 C.ar      1 <0>        -0.1403
      7 C7          2.4576    3.9312   -0.0022 C.3       1 <0>         0.0870
      8 H1          2.2970    4.9529    0.3419 H         1 <0>         0.1516
      9 C8          3.0734    3.9304   -1.4179 C.3       1 <0>        -0.1386
     10 C9          4.5951    3.8138   -1.1931 C.3       1 <0>        -0.1456
     11 C10         4.7707    3.7539    0.3395 C.3       1 <0>        -0.0122
     12 C11         3.2831    3.5972    2.2641 C.3       1 <0>        -0.0157
     13 C12         4.1541    2.7103    3.1161 C.2       1 <0>         0.4998
     14 O1          4.8591    1.8720    2.5953 O.2       1 <0>        -0.4941
     15 N1          4.1495    2.8486    4.4567 N.am      1 <0>        -0.5933
     16 C13         4.9509    2.0325    5.2406 C.2       1 <0>         0.0279
     17 C14         5.0821    2.0233    6.6187 C.2       1 <0>        -0.1770
     18 C15         6.0040    1.0509    7.2047 C.2       1 <0>        -0.0992
     19 C16         6.6365    0.2588    6.3205 C.2       1 <0>        -0.2085
     20 S1          6.0246    0.7730    4.7344 S.3       1 <0>         0.2704
     21 C17         7.5680   -0.7103    6.9969 C.3       1 <0>        -0.0379
     22 C18         7.7645   -0.1348    8.4168 C.3       1 <0>        -0.1160
     23 C19         6.4640    0.6697    8.6124 C.3       1 <0>        -0.0636
     24 C20         4.3245    2.9548    7.4602 C.2       1 <0>         0.5754
     25 O2          3.2261    2.6404    7.8797 O.2       1 <0>        -0.5258
     26 N2          4.8444    4.1592    7.7691 N.am      1 <0>        -0.8456
     27 O3         -2.4152    3.8253    0.0558 O.3       1 <0>        -0.3009
     28 C21        -3.5892    3.0952   -0.3281 C.3       1 <0>         0.0182
     29 C22        -3.5691    1.7464    0.4037 C.3       1 <0>         0.0169
     30 O4         -2.3847    1.0427    0.0139 O.3       1 <0>        -0.2984
     31 H2          2.1172    1.2539   -0.0103 H         1 <0>         0.1284
     32 H3          0.0021   -0.0041    0.0020 H         1 <0>         0.1488
     33 H4         -0.0523    4.9248    0.0275 H         1 <0>         0.1468
     34 H5          2.7085    3.0767   -1.9890 H         1 <0>         0.1047
     35 H6          2.8372    4.8609   -1.9340 H         1 <0>         0.1168
     36 H7          4.9771    2.9028   -1.6538 H         1 <0>         0.1028
     37 H8          5.1059    4.6862   -1.6004 H         1 <0>         0.1144
     38 H9          5.5739    3.0660    0.6036 H         1 <0>         0.1467
     39 H10         4.9761    4.7476    0.7377 H         1 <0>         0.1333
     40 H11         3.5609    4.6393    2.4222 H         1 <0>         0.1656
     41 H12         2.2384    3.4538    2.5401 H         1 <0>         0.1672
     42 H13         3.5857    3.5191    4.8732 H         1 <0>         0.4269
     43 H14         8.5206   -0.7534    6.4689 H         1 <0>         0.0848
     44 H15         7.1171   -1.7014    7.0474 H         1 <0>         0.0914
     45 H16         8.6366    0.5178    8.4560 H         1 <0>         0.0804
     46 H17         7.8436   -0.9338    9.1540 H         1 <0>         0.0899
     47 H18         6.6599    1.5660    9.2009 H         1 <0>         0.0759
     48 H19         5.7089    0.0551    9.1025 H         1 <0>         0.0865
     49 H20         5.7198    4.4098    7.4348 H         1 <0>         0.4045
     50 H21         4.3432    4.7755    8.3258 H         1 <0>         0.4077
     51 H22        -3.5921    2.9289   -1.4053 H         1 <0>         0.0876
     52 H23        -4.4781    3.6565   -0.0399 H         1 <0>         0.1338
     53 H24        -4.4493    1.1655    0.1282 H         1 <0>         0.1341
     54 H25        -3.5605    1.9121    1.4810 H         1 <0>         0.0863
     55 N3          3.4775    3.2664    0.8162 N.4       1 <0>        -0.3815
     56 H26         3.4194    2.2488    0.6923 H         1 <0>         0.4337
@<TRIPOS>BOND
     1    1    6 ar
     2    1    2 ar
     3    1   31 1
     4    2    3 ar
     5    2   32 1
     6    3   30 1
     7    3    4 ar
     8    4    5 ar
     9    4   27 1
    10    5    6 ar
    11    5   33 1
    12    6    7 1
    13    7    8 1
    14    7    9 1
    15    7   55 1
    16    9   10 1
    17    9   34 1
    18    9   35 1
    19   10   11 1
    20   10   36 1
    21   10   37 1
    22   11   38 1
    23   11   39 1
    24   11   55 1
    25   12   13 1
    26   12   40 1
    27   12   41 1
    28   12   55 1
    29   13   14 2
    30   13   15 am
    31   15   16 1
    32   15   42 1
    33   16   20 1
    34   16   17 2
    35   17   18 1
    36   17   24 1
    37   18   23 1
    38   18   19 2
    39   19   20 1
    40   19   21 1
    41   21   22 1
    42   21   43 1
    43   21   44 1
    44   22   23 1
    45   22   45 1
    46   22   46 1
    47   23   47 1
    48   23   48 1
    49   24   25 2
    50   24   26 am
    51   26   49 1
    52   26   50 1
    53   27   28 1
    54   28   29 1
    55   28   51 1
    56   28   52 1
    57   29   30 1
    58   29   53 1
    59   29   54 1
    60   55   56 1
@<TRIPOS>MOLECULE
ZINC27563515
   49    50     0     0     0
SMALL
USER_CHARGES
N-(2,6-dichlorophenyl)-2-[ethyl-[2-(2-furylmethylcarbamoylamino)-2-oxo-ethyl]amino]acetamide
@<TRIPOS>ATOM
      1 C1          4.5111    4.2562   -2.1505 C.3       1 <0>        -0.1867
      2 C2          5.6330    3.2184   -2.0781 C.3       1 <0>        -0.0133
      3 N1          5.7959    2.7695   -0.6889 N.4       1 <0>        -0.3827
      4 C3          4.7250    1.8393   -0.3072 C.3       1 <0>        -0.0261
      5 C4          4.6194    1.7839    1.1951 C.2       1 <0>         0.4860
      6 O1          5.2905    2.5285    1.8781 O.2       1 <0>        -0.4900
      7 N2          3.7795    0.9069    1.7798 N.am      1 <0>        -0.6590
      8 C5          3.6257    0.9061    3.1716 C.ar      1 <0>         0.1475
      9 C6          3.5713   -0.2963    3.8655 C.ar      1 <0>        -0.0418
     10 C7          3.4199   -0.2933    5.2395 C.ar      1 <0>        -0.0858
     11 C8          3.3225    0.9046    5.9233 C.ar      1 <0>        -0.0903
     12 C9          3.3819    2.1033    5.2366 C.ar      1 <0>        -0.0877
     13 C10         3.5275    2.1078    3.8620 C.ar      1 <0>        -0.0250
     14 Cl1         3.5946    3.6132    3.0001 Cl        1 <0>        -0.0305
     15 Cl2         3.6941   -1.8008    3.0080 Cl        1 <0>        -0.0431
     16 C11         7.1180    2.1632   -0.4831 C.3       1 <0>        -0.0294
     17 C12         8.1843    3.2155   -0.6473 C.2       1 <0>         0.5193
     18 O2          7.8735    4.3576   -0.9097 O.2       1 <0>        -0.4570
     19 N3          9.4833    2.8869   -0.5023 N.am      1 <0>        -0.6903
     20 C13        10.4369    3.8280   -0.6491 C.2       1 <0>         0.6991
     21 O3         10.1253    4.9729   -0.9122 O.2       1 <0>        -0.5228
     22 N4         11.7359    3.4994   -0.5042 N.am      1 <0>        -0.7378
     23 C14        12.7724    4.5223   -0.6638 C.3       1 <0>         0.2219
     24 C15        14.1287    3.9003   -0.4527 C.2       1 <0>        -0.0530
     25 C16        14.8979    3.3475   -1.4078 C.2       1 <0>        -0.1716
     26 C17        16.0757    2.8916   -0.7723 C.2       1 <0>        -0.2192
     27 C18        15.9558    3.1930    0.5331 C.2       1 <0>        -0.0171
     28 O4         14.7771    3.8091    0.7199 O.3       1 <0>        -0.1715
     29 H1          4.3891    4.5923   -3.1908 H         1 <0>         0.1117
     30 H2          4.7661    5.1168   -1.5146 H         1 <0>         0.0860
     31 H3          3.5715    3.8056   -1.7982 H         1 <0>         0.0767
     32 H4          5.3780    2.3578   -2.7140 H         1 <0>         0.1316
     33 H5          6.5726    3.6690   -2.4304 H         1 <0>         0.1427
     34 H6          3.7703    2.1862   -0.7293 H         1 <0>         0.1705
     35 H7          4.9548    0.8362   -0.6958 H         1 <0>         0.1646
     36 H8          3.2148    0.1917    1.1637 H         1 <0>         0.4498
     37 H9          3.3780   -1.2276    5.7796 H         1 <0>         0.1513
     38 H10         3.2042    0.9040    6.9968 H         1 <0>         0.1519
     39 H11         3.3100    3.0371    5.7745 H         1 <0>         0.1493
     40 H12         7.1735    1.7400    0.5307 H         1 <0>         0.1661
     41 H13         7.2742    1.3643   -1.2229 H         1 <0>         0.1653
     42 H14         9.7652    1.8507   -0.2641 H         1 <0>         0.4445
     43 H15        12.0179    2.4632   -0.2661 H         1 <0>         0.4265
     44 H16        12.7169    4.9455   -1.6776 H         1 <0>         0.1045
     45 H17        12.6162    5.3212    0.0761 H         1 <0>         0.0905
     46 H18        14.6609    3.2669   -2.4584 H         1 <0>         0.1520
     47 H19        16.9111    2.3960   -1.2443 H         1 <0>         0.1543
     48 H20        16.6859    2.9805    1.3001 H         1 <0>         0.2088
     49 H21         5.7242    3.6531   -0.0376 H         1 <0>         0.4594
@<TRIPOS>BOND
     1    1    2 1
     2    1   29 1
     3    1   30 1
     4    1   31 1
     5    2    3 1
     6    2   32 1
     7    2   33 1
     8    3    4 1
     9    3   16 1
    10    3   49 1
    11    4    5 1
    12    4   34 1
    13    4   35 1
    14    5    6 2
    15    5    7 am
    16    7    8 1
    17    7   36 1
    18    8   13 ar
    19    8    9 ar
    20    9   10 ar
    21    9   15 1
    22   10   11 ar
    23   10   37 1
    24   11   12 ar
    25   11   38 1
    26   12   13 ar
    27   12   39 1
    28   13   14 1
    29   16   17 1
    30   16   40 1
    31   16   41 1
    32   17   18 2
    33   17   19 am
    34   19   20 am
    35   19   42 1
    36   20   21 2
    37   20   22 am
    38   22   23 1
    39   22   43 1
    40   23   24 1
    41   23   44 1
    42   23   45 1
    43   24   28 1
    44   24   25 2
    45   25   26 1
    46   25   46 1
    47   26   27 2
    48   26   47 1
    49   27   28 1
    50   27   48 1
@<TRIPOS>MOLECULE
ZINC39693372
   71    72     0     0     0
SMALL
USER_CHARGES

@<TRIPOS>ATOM
      1 C1          1.8732    0.8096    0.9797 C.3       1 <0>        -0.1554
      2 C2          1.1109   -0.4071    0.4508 C.3       1 <0>        -0.1250
      3 C3          1.8028   -0.9349   -0.8076 C.3       1 <0>        -0.1043
      4 C4          1.0406   -2.1515   -1.3365 C.3       1 <0>        -0.1067
      5 H1          0.9505   -2.8959   -0.5454 H         1 <0>         0.0925
      6 C5         -0.3548   -1.7204   -1.7925 C.3       1 <0>        -0.1430
      7 C6          1.7888   -2.7452   -2.5022 C.2       1 <0>         0.5466
      8 O1          2.4516   -2.0312   -3.2245 O.2       1 <0>        -0.5269
      9 N1          1.7214   -4.0698   -2.7419 N.am      1 <0>        -0.6255
     10 C7          0.8865   -5.0774   -2.0465 C.3       1 <0>         0.1095
     11 C8          0.4011   -6.0232   -3.1678 C.3       1 <0>        -0.1128
     12 H2         -0.5844   -5.7191   -3.5207 H         1 <0>         0.1135
     13 C9          1.4423   -5.8694   -4.2890 C.3       1 <0>        -0.0721
     14 C10         2.4610   -4.8468   -3.7653 C.3       1 <0>         0.1057
     15 C11         0.7789   -5.3419   -5.5575 C.3       1 <0>        -0.1342
     16 C12         1.8229   -5.2516   -6.6742 C.3       1 <0>        -0.0113
     17 N2          2.3998   -6.5796   -6.9156 N.4       1 <0>        -0.5045
     18 C13         3.1155   -7.0398   -5.7195 C.3       1 <0>        -0.0076
     19 C14         2.1263   -7.2054   -4.5624 C.3       1 <0>        -0.1471
     20 C15         0.3643   -7.4467   -2.6743 C.2       1 <0>         0.5230
     21 O2          1.1319   -7.8080   -1.8076 O.2       1 <0>        -0.5156
     22 N3         -0.5216   -8.3181   -3.1960 N.am      1 <0>        -0.7250
     23 C16        -0.5573   -9.7019   -2.7162 C.3       1 <0>         0.1042
     24 C17        -1.6442  -10.4740   -3.4667 C.3       1 <0>         0.1289
     25 N4         -1.6799  -11.8578   -2.9870 N.am      1 <0>        -0.7132
     26 C18        -2.5658  -12.7292   -3.5087 C.2       1 <0>         0.6541
     27 O3         -3.3349  -12.3672   -4.3770 O.2       1 <0>        -0.5619
     28 O4         -2.5986  -14.0009   -3.0678 O.3       1 <0>        -0.3552
     29 C19        -3.5629  -14.8700   -3.6652 C.3       1 <0>         0.1351
     30 C20        -3.3024  -14.9632   -5.1700 C.3       1 <0>        -0.1859
     31 C21        -3.4505  -16.2624   -3.0410 C.3       1 <0>        -0.1429
     32 C22        -4.9682  -14.3150   -3.4243 C.3       1 <0>        -0.1872
     33 H3          2.8960    0.5205    1.2215 H         1 <0>         0.0548
     34 H4          1.8864    1.5893    0.2181 H         1 <0>         0.0559
     35 H5          1.3803    1.1856    1.8762 H         1 <0>         0.0580
     36 H6          1.0978   -1.1868    1.2123 H         1 <0>         0.0625
     37 H7          0.0882   -0.1180    0.2090 H         1 <0>         0.0663
     38 H8          1.8160   -0.1551   -1.5692 H         1 <0>         0.0761
     39 H9          2.8256   -1.2239   -0.5658 H         1 <0>         0.0657
     40 H10        -0.2675   -0.8930   -2.4967 H         1 <0>         0.0667
     41 H11        -0.8539   -2.5593   -2.2775 H         1 <0>         0.0546
     42 H12        -0.9372   -1.4017   -0.9280 H         1 <0>         0.0767
     43 H13         1.4821   -5.6267   -1.3174 H         1 <0>         0.1004
     44 H14         0.0373   -4.5971   -1.5603 H         1 <0>         0.0954
     45 H15         2.7927   -4.1938   -4.5726 H         1 <0>         0.0892
     46 H16         3.3117   -5.3574   -3.3139 H         1 <0>         0.0837
     47 H17        -0.0193   -6.0198   -5.8597 H         1 <0>         0.0965
     48 H18         0.3638   -4.3523   -5.3666 H         1 <0>         0.1183
     49 H19         1.3484   -4.8905   -7.5866 H         1 <0>         0.1402
     50 H20         2.6125   -4.5610   -6.3780 H         1 <0>         0.1343
     51 H21         1.6611   -7.2309   -7.1352 H         1 <0>         0.4276
     52 H22         3.5937   -7.9968   -5.9282 H         1 <0>         0.1395
     53 H23         3.8746   -6.3068   -5.4461 H         1 <0>         0.1336
     54 H24         2.6614   -7.5297   -3.6698 H         1 <0>         0.1263
     55 H25         1.3765   -7.9504   -4.8285 H         1 <0>         0.0962
     56 H26        -1.1355   -8.0291   -3.8891 H         1 <0>         0.4043
     57 H27         0.4100  -10.1726   -2.8922 H         1 <0>         0.0816
     58 H28        -0.7767   -9.7107   -1.6486 H         1 <0>         0.0847
     59 H29        -2.6115  -10.0034   -3.2907 H         1 <0>         0.0800
     60 H30        -1.4248  -10.4652   -4.5344 H         1 <0>         0.0756
     61 H31        -1.0660  -12.1468   -2.2938 H         1 <0>         0.4110
     62 H32        -2.3013  -15.3586   -5.3416 H         1 <0>         0.0596
     63 H33        -4.0379  -15.6261   -5.6257 H         1 <0>         0.0738
     64 H34        -3.3825  -13.9713   -5.6147 H         1 <0>         0.0851
     65 H35        -3.6361  -16.1960   -1.9689 H         1 <0>         0.0686
     66 H36        -4.1861  -16.9253   -3.4967 H         1 <0>         0.0842
     67 H37        -2.4494  -16.6578   -3.2126 H         1 <0>         0.0678
     68 H38        -5.0482  -13.3231   -3.8690 H         1 <0>         0.0857
     69 H39        -5.7037  -14.9779   -3.8800 H         1 <0>         0.0739
     70 H40        -5.1538  -14.2486   -2.3523 H         1 <0>         0.0611
     71 H41         3.0424   -6.5296   -7.6919 H         1 <0>         0.4347
@<TRIPOS>BOND
     1    1    2 1
     2    1   33 1
     3    1   34 1
     4    1   35 1
     5    2    3 1
     6    2   36 1
     7    2   37 1
     8    3    4 1
     9    3   38 1
    10    3   39 1
    11    4    5 1
    12    4    6 1
    13    4    7 1
    14    6   40 1
    15    6   41 1
    16    6   42 1
    17    7    8 2
    18    7    9 am
    19    9   14 1
    20    9   10 1
    21   10   11 1
    22   10   43 1
    23   10   44 1
    24   11   12 1
    25   11   13 1
    26   11   20 1
    27   13   19 1
    28   13   14 1
    29   13   15 1
    30   14   45 1
    31   14   46 1
    32   15   16 1
    33   15   47 1
    34   15   48 1
    35   16   17 1
    36   16   49 1
    37   16   50 1
    38   17   18 1
    39   17   51 1
    40   17   71 1
    41   18   19 1
    42   18   52 1
    43   18   53 1
    44   19   54 1
    45   19   55 1
    46   20   21 2
    47   20   22 am
    48   22   23 1
    49   22   56 1
    50   23   24 1
    51   23   57 1
    52   23   58 1
    53   24   25 1
    54   24   59 1
    55   24   60 1
    56   25   26 am
    57   25   61 1
    58   26   27 2
    59   26   28 1
    60   28   29 1
    61   29   30 1
    62   29   31 1
    63   29   32 1
    64   30   62 1
    65   30   63 1
    66   30   64 1
    67   31   65 1
    68   31   66 1
    69   31   67 1
    70   32   68 1
    71   32   69 1
    72   32   70 1
@<TRIPOS>MOLECULE
ZINC43736816
   74    78     0     0     0
SMALL
USER_CHARGES

@<TRIPOS>ATOM
      1 C1         -0.0187    1.5296    0.0105 C.3       1 <0>        -0.1502
      2 C2          0.0021   -0.0041    0.0020 C.3       1 <0>        -0.0152
      3 C3          0.7213   -0.4038   -1.2766 C.3       1 <0>        -0.1082
      4 C4          2.2142   -0.0841   -1.2136 C.3       1 <0>        -0.0664
      5 C5          2.7994   -0.7887   -0.0083 C.2       1 <0>         0.1886
      6 N1          3.9633   -1.3637   -0.0674 N.2       1 <0>        -0.3507
      7 O1          4.4893   -2.0164    1.0738 O.3       1 <0>        -0.2210
      8 C6          5.7753   -2.6038    0.8663 C.3       1 <0>         0.0593
      9 C7          6.2358   -3.2672    2.1386 C.2       1 <0>         0.5220
     10 O2          5.5320   -3.2396    3.1260 O.2       1 <0>        -0.5113
     11 N2          7.4298   -3.8911    2.1794 N.am      1 <0>        -0.7349
     12 C8          7.8775   -4.5360    3.4163 C.3       1 <0>         0.1233
     13 C9          9.2544   -5.1649    3.1940 C.3       1 <0>        -0.0756
     14 C10         9.7149   -5.8283    4.4664 C.2       1 <0>         0.0327
     15 C11        10.3444   -5.2229    5.4915 C.2       1 <0>         0.0421
     16 N3         10.5788   -6.1853    6.4362 N.pl3     1 <0>        -0.5090
     17 H1         11.0182   -6.0574    7.2915 H         1 <0>         0.4691
     18 C12        10.0841   -7.3461    5.9552 C.cat     1 <0>         0.3106
     19 N4          9.5645   -7.1240    4.7789 N.pl3     1 <0>        -0.4740
     20 C13         2.0078   -0.8000    1.2320 C.2       1 <0>        -0.1897
     21 C14         0.7350   -0.4158    1.2323 C.2       1 <0>        -0.0271
     22 C15         0.0112   -0.3809    2.5636 C.3       1 <0>        -0.0911
     23 C16        -1.3007   -1.1329    2.4184 C.3       1 <0>        -0.1103
     24 C17        -2.1612   -0.5896    1.2884 C.3       1 <0>        -0.0595
     25 H2         -2.5555    0.3828    1.6035 H         1 <0>         0.0713
     26 C18        -1.4447   -0.4239   -0.0300 C.3       1 <0>        -0.0703
     27 H3         -1.9386    0.4361   -0.5131 H         1 <0>         0.0678
     28 C19        -1.7180   -1.5902   -0.9720 C.3       1 <0>        -0.1146
     29 C20        -3.1930   -1.5955   -1.4062 C.3       1 <0>        -0.1046
     30 C21        -4.0696   -1.2459   -0.2273 C.3       1 <0>        -0.0334
     31 C22        -3.3248   -1.5555    1.0886 C.3       1 <0>        -0.0759
     32 H4         -2.9524   -2.5890    1.0811 H         1 <0>         0.0853
     33 C23        -4.4425   -1.4197    2.1362 C.3       1 <0>        -0.1165
     34 C24        -5.6906   -2.0022    1.4242 C.3       1 <0>        -0.1442
     35 C25        -5.3311   -2.1142   -0.0777 C.3       1 <0>         0.2437
     36 C26        -6.4171   -1.5774   -0.9080 C.1       1 <0>        -0.2108
     37 C27        -7.2852   -1.1482   -1.5717 C.1       1 <0>        -0.1792
     38 O3         -5.0507   -3.4689   -0.4198 O.3       1 <0>        -0.5399
     39 C28        -4.5081    0.2186   -0.2962 C.3       1 <0>        -0.1446
     40 H5          1.0039    1.9068    0.0027 H         1 <0>         0.0578
     41 H6         -0.5459    1.8906   -0.8726 H         1 <0>         0.0642
     42 H7         -0.5289    1.8811    0.9072 H         1 <0>         0.0592
     43 H8          0.6092   -1.4797   -1.4238 H         1 <0>         0.0751
     44 H9          0.2748    0.1238   -2.1176 H         1 <0>         0.0863
     45 H10         2.7026   -0.4499   -2.1226 H         1 <0>         0.0905
     46 H11         2.3738    0.9901   -1.1340 H         1 <0>         0.0975
     47 H12         5.7112   -3.3471    0.0716 H         1 <0>         0.0889
     48 H13         6.4872   -1.8288    0.5823 H         1 <0>         0.0895
     49 H14         7.9927   -3.9132    1.3897 H         1 <0>         0.4076
     50 H15         7.9415   -3.7927    4.2109 H         1 <0>         0.0798
     51 H16         7.1655   -5.3110    3.7002 H         1 <0>         0.0726
     52 H17         9.1903   -5.9083    2.3994 H         1 <0>         0.1054
     53 H18         9.9663   -4.3899    2.9101 H         1 <0>         0.1215
     54 H19        10.6129   -4.1788    5.5557 H         1 <0>         0.2284
     55 H20        10.1104   -8.2995    6.4618 H         1 <0>         0.2679
     56 H21         2.4658   -1.1246    2.1573 H         1 <0>         0.1275
     57 H22         0.6281   -0.8621    3.3263 H         1 <0>         0.0740
     58 H23        -0.1806    0.6516    2.8563 H         1 <0>         0.0813
     59 H24        -1.0911   -2.1875    2.2259 H         1 <0>         0.0623
     60 H25        -1.8610   -1.0577    3.3534 H         1 <0>         0.0671
     61 H26        -1.0988   -1.4997   -1.8672 H         1 <0>         0.0705
     62 H27        -1.4800   -2.5305   -0.4723 H         1 <0>         0.0616
     63 H28        -3.3361   -0.8593   -2.2047 H         1 <0>         0.0595
     64 H29        -3.4506   -2.5830   -1.7956 H         1 <0>         0.0782
     65 H30        -4.2035   -2.0089    3.0244 H         1 <0>         0.0682
     66 H31        -4.6002   -0.3781    2.4103 H         1 <0>         0.0710
     67 H32        -5.9247   -2.9879    1.8256 H         1 <0>         0.0766
     68 H33        -6.5414   -1.3333    1.5537 H         1 <0>         0.0736
     69 H34        -8.0616   -0.7644   -2.1653 H         1 <0>         0.2185
     70 H35        -5.8123   -4.0597   -0.3428 H         1 <0>         0.3802
     71 H36        -5.0588    0.3898   -1.2212 H         1 <0>         0.0596
     72 H37        -5.1489    0.4465    0.5556 H         1 <0>         0.0586
     73 H38        -3.6291    0.8627   -0.2722 H         1 <0>         0.0661
     74 H39         9.1384   -7.7910    4.2182 H         1 <0>         0.4658
@<TRIPOS>BOND
     1    1    2 1
     2    1   40 1
     3    1   41 1
     4    1   42 1
     5    2   21 1
     6    2   26 1
     7    2    3 1
     8    3    4 1
     9    3   43 1
    10    3   44 1
    11    4    5 1
    12    4   45 1
    13    4   46 1
    14    5    6 2
    15    5   20 1
    16    6    7 1
    17    7    8 1
    18    8    9 1
    19    8   47 1
    20    8   48 1
    21    9   10 2
    22    9   11 am
    23   11   12 1
    24   11   49 1
    25   12   13 1
    26   12   50 1
    27   12   51 1
    28   13   14 1
    29   13   52 1
    30   13   53 1
    31   14   19 1
    32   14   15 2
    33   15   16 1
    34   15   54 1
    35   16   17 1
    36   16   18 1
    37   18   19 2
    38   18   55 1
    39   19   74 1
    40   20   21 2
    41   20   56 1
    42   21   22 1
    43   22   23 1
    44   22   57 1
    45   22   58 1
    46   23   24 1
    47   23   59 1
    48   23   60 1
    49   24   25 1
    50   24   31 1
    51   24   26 1
    52   26   27 1
    53   26   28 1
    54   28   29 1
    55   28   61 1
    56   28   62 1
    57   29   30 1
    58   29   63 1
    59   29   64 1
    60   30   35 1
    61   30   31 1
    62   30   39 1
    63   31   32 1
    64   31   33 1
    65   33   34 1
    66   33   65 1
    67   33   66 1
    68   34   35 1
    69   34   67 1
    70   34   68 1
    71   35   36 1
    72   35   38 1
    73   36   37 3
    74   37   69 1
    75   38   70 1
    76   39   71 1
    77   39   72 1
    78   39   73 1
@<TRIPOS>MOLECULE
ZINC63386340
   56    59     0     0     0
SMALL
USER_CHARGES

@<TRIPOS>ATOM
      1 C1         -0.0187    1.5258    0.0104 C.3       1 <0>        -0.1460
      2 C2          0.0021   -0.0041    0.0020 C.3       1 <0>        -0.0382
      3 H1          0.4325   -0.3553   -0.9358 H         1 <0>         0.0989
      4 C3         -1.4069   -0.5250    0.1327 C.ar      1 <0>        -0.1899
      5 C4         -2.4227    0.1335   -0.5535 C.ar      1 <0>         0.1688
      6 C5         -3.7299   -0.3148   -0.4672 C.ar      1 <0>        -0.1867
      7 C6         -4.0300   -1.4264    0.3061 C.ar      1 <0>         0.1625
      8 C7         -3.0206   -2.0816    0.9917 C.ar      1 <0>        -0.1694
      9 C8         -1.7080   -1.6294    0.9086 C.ar      1 <0>         0.1544
     10 O1         -0.7518   -2.2927    1.6146 O.3       1 <0>        -0.2963
     11 C9          0.5355   -1.9766    1.3696 C.2       1 <0>         0.4916
     12 O2          1.3950   -2.8238    1.3107 O.2       1 <0>        -0.4077
     13 C10         0.8520   -0.5080    1.1724 C.3       1 <0>        -0.1125
     14 H2          1.9101   -0.3869    0.9402 H         1 <0>         0.1292
     15 C11         0.5048    0.2741    2.4408 C.3       1 <0>        -0.1371
     16 C12         1.4290   -0.1418    3.5561 C.2       1 <0>         0.5105
     17 O3          2.2814   -0.9811    3.3563 O.2       1 <0>        -0.5158
     18 N1          1.3082    0.4189    4.7758 N.am      1 <0>        -0.7352
     19 C13         2.2066    0.0146    5.8600 C.3       1 <0>         0.1247
     20 C14         1.8594    0.7967    7.1284 C.3       1 <0>        -0.1049
     21 C15         2.7836    0.3808    8.2438 C.2       1 <0>         0.0688
     22 C16         3.9284    0.9921    8.6198 C.ar      1 <0>        -0.1802
     23 C17         4.6283    2.1829    8.1204 C.ar      1 <0>         0.0283
     24 C18         5.7820    2.5622    8.7108 C.ar      1 <0>        -0.2153
     25 C19         6.3291    1.8443    9.7913 C.ar      1 <0>         0.2965
     26 C20         5.7378    0.7356   10.3048 C.ar      1 <0>        -0.2727
     27 C21         4.5227    0.2536    9.7576 C.ar      1 <0>         0.3495
     28 N2          3.7713   -0.7765   10.0721 N.pl3     1 <0>        -0.5957
     29 C22         2.6131   -0.8009    9.1717 C.3       1 <0>         0.0669
     30 O4          7.4914    2.2768   10.3397 O.3       1 <0>        -0.2833
     31 C23         8.0818    3.4468    9.7700 C.3       1 <0>         0.0086
     32 O5         -5.3112   -1.8714    0.3911 O.3       1 <0>        -0.4899
     33 O6         -2.1303    1.2225   -1.3120 O.3       1 <0>        -0.4839
     34 H3          0.9884    1.9018    0.1904 H         1 <0>         0.0585
     35 H4         -0.3755    1.8896   -0.9531 H         1 <0>         0.0913
     36 H5         -0.6837    1.8758    0.7999 H         1 <0>         0.0624
     37 H6         -4.5148    0.2006   -1.0009 H         1 <0>         0.1454
     38 H7         -3.2539   -2.9474    1.5937 H         1 <0>         0.1468
     39 H8          0.6200    1.3415    2.2524 H         1 <0>         0.1237
     40 H9         -0.5261    0.0646    2.7260 H         1 <0>         0.1055
     41 H10         0.6265    1.0901    4.9356 H         1 <0>         0.4073
     42 H11         2.0915   -1.0528    6.0484 H         1 <0>         0.0788
     43 H12         3.2376    0.2241    5.5748 H         1 <0>         0.0796
     44 H13         1.9746    1.8641    6.9401 H         1 <0>         0.1151
     45 H14         0.8285    0.5872    7.4136 H         1 <0>         0.1192
     46 H15         4.2259    2.7473    7.2921 H         1 <0>         0.1671
     47 H16         6.2980    3.4375    8.3448 H         1 <0>         0.1653
     48 H17         6.1957    0.2182   11.1349 H         1 <0>         0.1665
     49 H18         1.6893   -0.7009    9.7415 H         1 <0>         0.1698
     50 H19         2.6040   -1.7291    8.6002 H         1 <0>         0.1688
     51 H20         7.3880    4.2829    9.8569 H         1 <0>         0.0759
     52 H21         9.0042    3.6834   10.3004 H         1 <0>         0.1238
     53 H22         8.3035    3.2665    8.7181 H         1 <0>         0.0760
     54 H23        -5.5469   -2.5229   -0.2835 H         1 <0>         0.4020
     55 H24        -1.9122    1.0148   -2.2309 H         1 <0>         0.3974
     56 H25         3.9500   -1.4122   10.7826 H         1 <0>         0.4554
@<TRIPOS>BOND
     1    1    2 1
     2    1   34 1
     3    1   35 1
     4    1   36 1
     5    2    3 1
     6    2   13 1
     7    2    4 1
     8    4    9 ar
     9    4    5 ar
    10    5    6 ar
    11    5   33 1
    12    6    7 ar
    13    6   37 1
    14    7    8 ar
    15    7   32 1
    16    8    9 ar
    17    8   38 1
    18    9   10 1
    19   10   11 1
    20   11   12 2
    21   11   13 1
    22   13   14 1
    23   13   15 1
    24   15   16 1
    25   15   39 1
    26   15   40 1
    27   16   17 2
    28   16   18 am
    29   18   19 1
    30   18   41 1
    31   19   20 1
    32   19   42 1
    33   19   43 1
    34   20   21 1
    35   20   44 1
    36   20   45 1
    37   21   29 1
    38   21   22 2
    39   22   27 ar
    40   22   23 ar
    41   23   24 ar
    42   23   46 1
    43   24   25 ar
    44   24   47 1
    45   25   26 ar
    46   25   30 1
    47   26   27 ar
    48   26   48 1
    49   27   28 2
    50   28   29 1
    51   28   56 1
    52   29   49 1
    53   29   50 1
    54   30   31 1
    55   31   51 1
    56   31   52 1
    57   31   53 1
    58   32   54 1
    59   33   55 1
@<TRIPOS>MOLECULE
ZINC03978069
   77    81     0     0     0
SMALL
USER_CHARGES
methyl 4-(4-dimethylamino-5-hydroxy-6-methyl-tetrahydropyran-2-yl)oxy-2-ethyl-2,5,7-trihydroxy-6,11-dioxo-3,4-dihydro-1H-tetracene-1-carboxylate
@<TRIPOS>ATOM
      1 C1         -3.4622   -2.2123    5.3584 C.3       1 <0>        -0.1586
      2 C2         -4.6478   -1.2630    5.1735 C.3       1 <0>        -0.1533
      3 C3         -4.1570    0.0541    4.5689 C.3       1 <0>         0.1511
      4 C4         -3.5369   -0.2092    3.1915 C.3       1 <0>        -0.1915
      5 C5         -2.8462    1.0700    2.7237 C.3       1 <0>         0.1545
      6 H1         -1.9700    1.2533    3.3456 H         1 <0>         0.1232
      7 C6         -3.7823    2.2466    2.8265 C.ar      1 <0>        -0.0959
      8 C7         -4.9225    2.2204    3.5947 C.ar      1 <0>        -0.0162
      9 C8         -5.7491    3.3404    3.6585 C.ar      1 <0>        -0.0712
     10 C9         -5.4378    4.4895    2.9478 C.ar      1 <0>        -0.0942
     11 C10        -4.2739    4.5215    2.1554 C.ar      1 <0>        -0.1504
     12 C11        -3.4520    3.3974    2.1017 C.ar      1 <0>         0.1801
     13 O1         -2.3275    3.4188    1.3444 O.3       1 <0>        -0.4557
     14 C12        -3.9399    5.7411    1.3948 C.2       1 <0>         0.4320
     15 O2         -2.8319    5.8818    0.9139 O.2       1 <0>        -0.3970
     16 C13        -4.9660    6.7880    1.2240 C.ar      1 <0>        -0.1548
     17 C14        -6.1308    6.7599    2.0158 C.ar      1 <0>        -0.1074
     18 C15        -7.0978    7.7448    1.8559 C.ar      1 <0>        -0.0739
     19 C16        -6.9143    8.7495    0.9182 C.ar      1 <0>        -0.0777
     20 C17        -5.7763    8.7831    0.1394 C.ar      1 <0>        -0.1242
     21 C18        -4.7940    7.8062    0.2840 C.ar      1 <0>         0.1607
     22 O3         -3.6768    7.8439   -0.4834 O.3       1 <0>        -0.4733
     23 C19        -6.3129    5.6802    3.0101 C.2       1 <0>         0.4350
     24 O4         -7.1703    5.7701    3.8665 O.2       1 <0>        -0.4133
     25 C20        -5.3352    1.0091    4.3911 C.3       1 <0>        -0.0398
     26 H2         -5.6900    1.3281    5.3711 H         1 <0>         0.1350
     27 C21        -6.4483    0.2952    3.6683 C.2       1 <0>         0.4792
     28 O5         -6.4623    0.2647    2.4605 O.2       1 <0>        -0.4978
     29 O6         -7.4242   -0.3066    4.3662 O.3       1 <0>        -0.3473
     30 C22        -8.4638   -0.9749    3.6041 C.3       1 <0>         0.0330
     31 O7         -2.4345    0.9130    1.3644 O.3       1 <0>        -0.3746
     32 C23        -3.2099   -0.0348    0.6279 C.3       1 <0>         0.2381
     33 H3         -4.2651    0.0919    0.8703 H         1 <0>         0.1296
     34 C24        -3.0001    0.1891   -0.8719 C.3       1 <0>        -0.1565
     35 C25        -1.5268   -0.0500   -1.2161 C.3       1 <0>         0.0369
     36 H4         -0.9072    0.6780   -0.6925 H         1 <0>         0.1610
     37 C26        -1.1350   -1.4649   -0.7792 C.3       1 <0>         0.0582
     38 H5         -0.0737   -1.6243   -0.9700 H         1 <0>         0.0921
     39 C27        -1.4153   -1.6245    0.7174 C.3       1 <0>         0.0647
     40 H6         -1.1782   -2.6430    1.0250 H         1 <0>         0.1200
     41 O8         -2.7959   -1.3584    0.9730 O.3       1 <0>        -0.3585
     42 C28        -0.5510   -0.6389    1.5063 C.3       1 <0>        -0.1931
     43 O9         -1.9022   -2.4211   -1.5134 O.3       1 <0>        -0.5650
     44 C29        -1.7090    1.4330   -3.1213 C.3       1 <0>        -0.0495
     45 C30         0.0522   -0.2267   -3.0431 C.3       1 <0>        -0.0459
     46 O10        -3.1828    0.6465    5.4302 O.3       1 <0>        -0.5421
     47 H7         -2.7319   -1.7557    6.0264 H         1 <0>         0.0609
     48 H8         -3.8119   -3.1506    5.7891 H         1 <0>         0.0680
     49 H9         -2.9984   -2.4070    4.3914 H         1 <0>         0.0591
     50 H10        -5.1116   -1.0683    6.1405 H         1 <0>         0.0874
     51 H11        -5.3781   -1.7196    4.5055 H         1 <0>         0.0726
     52 H12        -4.3184   -0.4847    2.4833 H         1 <0>         0.1027
     53 H13        -2.8067   -1.0152    3.2646 H         1 <0>         0.1037
     54 H14        -6.6408    3.3132    4.2673 H         1 <0>         0.1476
     55 H15        -2.4757    3.2009    0.4140 H         1 <0>         0.3839
     56 H16        -7.9921    7.7273    2.4612 H         1 <0>         0.1484
     57 H17        -7.6687    9.5127    0.7968 H         1 <0>         0.1469
     58 H18        -5.6459    9.5719   -0.5866 H         1 <0>         0.1468
     59 H19        -3.7554    7.3593   -1.3165 H         1 <0>         0.3939
     60 H20        -9.1876   -1.4183    4.2879 H         1 <0>         0.1097
     61 H21        -8.9663   -0.2510    2.9625 H         1 <0>         0.0678
     62 H22        -8.0180   -1.7571    2.9896 H         1 <0>         0.0663
     63 H23        -3.2727    1.2127   -1.1290 H         1 <0>         0.1026
     64 H24        -3.6231   -0.5061   -1.4347 H         1 <0>         0.1158
     65 H25        -0.6390    0.3544    1.0663 H         1 <0>         0.0898
     66 H26        -0.8883   -0.6085    2.5424 H         1 <0>         0.0763
     67 H27         0.4899   -0.9605    1.4724 H         1 <0>         0.0640
     68 H28        -1.7055   -3.3405   -1.2872 H         1 <0>         0.4079
     69 H29        -1.0927    2.1749   -2.6135 H         1 <0>         0.1264
     70 H30        -1.5550    1.5082   -4.1978 H         1 <0>         0.1257
     71 H31        -2.7589    1.6137   -2.8910 H         1 <0>         0.1207
     72 H32         0.2827   -1.2527   -2.7559 H         1 <0>         0.1203
     73 H33         0.1688   -0.1164   -4.1212 H         1 <0>         0.1252
     74 H34         0.7323    0.4550   -2.5324 H         1 <0>         0.1239
     75 H35        -2.3986    0.0989    5.5725 H         1 <0>         0.3858
     76 N1         -1.3492    0.0694   -2.6785 N.4       1 <0>        -0.3925
     77 H36        -1.9653   -0.6063   -3.1456 H         1 <0>         0.4362
@<TRIPOS>BOND
     1    1    2 1
     2    1   47 1
     3    1   48 1
     4    1   49 1
     5    2    3 1
     6    2   50 1
     7    2   51 1
     8    3   25 1
     9    3    4 1
    10    3   46 1
    11    4    5 1
    12    4   52 1
    13    4   53 1
    14    5    6 1
    15    5    7 1
    16    5   31 1
    17    7   12 ar
    18    7    8 ar
    19    8    9 ar
    20    8   25 1
    21    9   10 ar
    22    9   54 1
    23   10   23 1
    24   10   11 ar
    25   11   12 ar
    26   11   14 1
    27   12   13 1
    28   13   55 1
    29   14   15 2
    30   14   16 1
    31   16   21 ar
    32   16   17 ar
    33   17   18 ar
    34   17   23 1
    35   18   19 ar
    36   18   56 1
    37   19   20 ar
    38   19   57 1
    39   20   21 ar
    40   20   58 1
    41   21   22 1
    42   22   59 1
    43   23   24 2
    44   25   26 1
    45   25   27 1
    46   27   28 2
    47   27   29 1
    48   29   30 1
    49   30   60 1
    50   30   61 1
    51   30   62 1
    52   31   32 1
    53   32   33 1
    54   32   41 1
    55   32   34 1
    56   34   35 1
    57   34   63 1
    58   34   64 1
    59   35   36 1
    60   35   37 1
    61   35   76 1
    62   37   38 1
    63   37   39 1
    64   37   43 1
    65   39   40 1
    66   39   41 1
    67   39   42 1
    68   42   65 1
    69   42   66 1
    70   42   67 1
    71   43   68 1
    72   44   69 1
    73   44   70 1
    74   44   71 1
    75   44   76 1
    76   45   72 1
    77   45   73 1
    78   45   74 1
    79   45   76 1
    80   46   75 1
    81   76   77 1
@<TRIPOS>MOLECULE
ZINC12339510
   65    69     0     0     0
SMALL
USER_CHARGES
(2S,3R,4S,5S,6R)-2-(dimethoxyBLAHyl)oxy-6-(hydroxymethyl)tetrahydropyran-3,4,5-triol
@<TRIPOS>ATOM
      1 C1          5.3021    2.8649   -0.2914 C.3       1 <0>         0.0221
      2 O1          3.9395    2.4581   -0.1509 O.3       1 <0>        -0.2958
      3 C2          3.4562    1.5881   -1.0777 C.ar      1 <0>         0.1224
      4 C3          4.2717    1.1347   -2.0988 C.ar      1 <0>        -0.1648
      5 C4          3.7844    0.2456   -3.0472 C.ar      1 <0>        -0.0955
      6 C5          2.4775   -0.1809   -2.9842 C.ar      1 <0>        -0.0726
      7 C6          1.6579    0.2638   -1.9532 C.ar      1 <0>        -0.1413
      8 C7          2.1382    1.1478   -1.0048 C.ar      1 <0>         0.1305
      9 O2          1.3278    1.5807   -0.0021 O.3       1 <0>        -0.2784
     10 C8         -0.0127    1.0858    0.0080 C.3       1 <0>         0.2232
     11 H1          0.0021   -0.0041    0.0020 H         1 <0>         0.0790
     12 C9         -0.7297    1.5798    1.2672 C.3       1 <0>         0.0604
     13 H2         -0.7085    2.6692    1.2948 H         1 <0>         0.0902
     14 C10        -2.1827    1.0953    1.2412 C.3       1 <0>         0.0864
     15 H3         -2.2043    0.0058    1.2658 H         1 <0>         0.0789
     16 C11        -2.8527    1.5941   -0.0427 C.3       1 <0>         0.0882
     17 H4         -2.8763    2.6838   -0.0417 H         1 <0>         0.0829
     18 C12        -2.0537    1.0996   -1.2514 C.3       1 <0>         0.1105
     19 H5         -2.0656    0.0099   -1.2738 H         1 <0>         0.0837
     20 O3         -0.7043    1.5594   -1.1494 O.3       1 <0>        -0.3747
     21 C13        -2.6825    1.6433   -2.5358 C.3       1 <0>         0.0900
     22 O4         -2.0088    1.0890   -3.6676 O.3       1 <0>        -0.5721
     23 O5         -4.1871    1.0876   -0.1128 O.3       1 <0>        -0.5492
     24 O6         -2.8796    1.6130    2.3763 O.3       1 <0>        -0.5510
     25 O7         -0.0736    1.0598    2.4253 O.3       1 <0>        -0.5514
     26 C14         1.8911   -1.1167   -3.9969 C.3       1 <0>        -0.0964
     27 C15         2.8447   -1.5120   -5.0934 C.3       1 <0>         0.0112
     28 C16         4.7305   -0.2421   -4.1110 C.3       1 <0>         0.1443
     29 C17         5.0661    0.8762   -5.0813 C.3       1 <0>        -0.1204
     30 C18         5.9049    1.9668   -4.4511 C.3       1 <0>         0.1232
     31 H6          5.2427    2.6259   -3.8898 H         1 <0>         0.0834
     32 C19         6.9841    1.5002   -3.5366 C.2       1 <0>        -0.1468
     33 C20         7.0613    0.2737   -3.0336 C.2       1 <0>        -0.0976
     34 C21         6.0161   -0.6860   -3.4279 C.2       1 <0>        -0.0978
     35 C22         6.0014   -2.0011   -3.2938 C.2       1 <0>        -0.1497
     36 C23         4.7175   -2.5367   -3.9015 C.3       1 <0>         0.0185
     37 O8          6.5056    2.7279   -5.5009 O.3       1 <0>        -0.3723
     38 C24         6.6167    4.1239   -5.2164 C.3       1 <0>         0.0232
     39 H7          5.5591    3.5571    0.5104 H         1 <0>         0.1122
     40 H8          5.9499    1.9900   -0.2376 H         1 <0>         0.0587
     41 H9          5.4367    3.3580   -1.2541 H         1 <0>         0.0548
     42 H10         5.2951    1.4746   -2.1585 H         1 <0>         0.1515
     43 H11         0.6361   -0.0810   -1.8948 H         1 <0>         0.1499
     44 H12        -3.7365    1.3675   -2.5694 H         1 <0>         0.0829
     45 H13        -2.5903    2.7293   -2.5540 H         1 <0>         0.0600
     46 H14        -2.3557    1.3906   -4.5184 H         1 <0>         0.3871
     47 H15        -4.7497    1.3580    0.6257 H         1 <0>         0.3995
     48 H16        -2.5043    1.3422    3.2254 H         1 <0>         0.3983
     49 H17         0.8535    1.3232    2.5036 H         1 <0>         0.3962
     50 H18         1.5590   -2.0193   -3.4838 H         1 <0>         0.1032
     51 H19         1.0219   -0.6387   -4.4486 H         1 <0>         0.1279
     52 H20         2.6155   -2.5361   -5.3880 H         1 <0>         0.1374
     53 H21         2.6593   -0.8664   -5.9518 H         1 <0>         0.1304
     54 H22         4.1377    1.3142   -5.4478 H         1 <0>         0.1026
     55 H23         5.6120    0.4566   -5.9263 H         1 <0>         0.1013
     56 H24         7.7546    2.2063   -3.2642 H         1 <0>         0.1347
     57 H25         7.8588   -0.0088   -2.3624 H         1 <0>         0.1524
     58 H26         6.7744   -2.5955   -2.8296 H         1 <0>         0.1787
     59 H27         3.9854   -2.7462   -3.1217 H         1 <0>         0.1496
     60 H28         4.9166   -3.4344   -4.4869 H         1 <0>         0.1474
     61 H29         7.2287    4.2656   -4.3256 H         1 <0>         0.0490
     62 H30         7.0822    4.6310   -6.0615 H         1 <0>         0.0994
     63 H31         5.6238    4.5399   -5.0450 H         1 <0>         0.0496
     64 N1          4.3225   -1.4553   -4.7819 N.4       1 <0>        -0.3765
     65 H32         4.8345   -1.5330   -5.6685 H         1 <0>         0.4376
@<TRIPOS>BOND
     1    1    2 1
     2    1   39 1
     3    1   40 1
     4    1   41 1
     5    2    3 1
     6    3    8 ar
     7    3    4 ar
     8    4    5 ar
     9    4   42 1
    10    5   28 1
    11    5    6 ar
    12    6    7 ar
    13    6   26 1
    14    7    8 ar
    15    7   43 1
    16    8    9 1
    17    9   10 1
    18   10   11 1
    19   10   20 1
    20   10   12 1
    21   12   13 1
    22   12   14 1
    23   12   25 1
    24   14   15 1
    25   14   16 1
    26   14   24 1
    27   16   17 1
    28   16   18 1
    29   16   23 1
    30   18   19 1
    31   18   20 1
    32   18   21 1
    33   21   22 1
    34   21   44 1
    35   21   45 1
    36   22   46 1
    37   23   47 1
    38   24   48 1
    39   25   49 1
    40   26   27 1
    41   26   50 1
    42   26   51 1
    43   27   52 1
    44   27   53 1
    45   27   64 1
    46   28   34 1
    47   28   29 1
    48   28   64 1
    49   29   30 1
    50   29   54 1
    51   29   55 1
    52   30   31 1
    53   30   32 1
    54   30   37 1
    55   32   33 2
    56   32   56 1
    57   33   34 1
    58   33   57 1
    59   34   35 2
    60   35   36 1
    61   35   58 1
    62   36   59 1
    63   36   60 1
    64   36   64 1
    65   37   38 1
    66   38   61 1
    67   38   62 1
    68   38   63 1
    69   64   65 1
@<TRIPOS>MOLECULE
ZINC34387433
   57    60     0     0     0
SMALL
USER_CHARGES

@<TRIPOS>ATOM
      1 C1         -0.2379    0.6417   -0.8390 C.ar      1 <0>        -0.1201
      2 C2          0.8719    1.4661   -0.8093 C.ar      1 <0>        -0.0950
      3 C3          2.1336    0.9230   -0.6650 C.ar      1 <0>        -0.1386
      4 C4          2.2870   -0.4519   -0.5495 C.ar      1 <0>         0.1143
      5 C5          1.1709   -1.2770   -0.5792 C.ar      1 <0>        -0.1382
      6 C6         -0.0883   -0.7281   -0.7241 C.ar      1 <0>        -0.0949
      7 N1          3.5665   -1.0061   -0.4034 N.am      1 <0>        -0.5354
      8 C7          4.7180   -0.2598   -0.3594 C.2       1 <0>         0.5801
      9 O1          4.8171    0.9398   -0.2155 O.2       1 <0>        -0.4099
     10 C8          5.7836   -1.2175   -0.5223 C.3       1 <0>        -0.1856
     11 H1          5.6997   -1.4883   -1.5748 H         1 <0>         0.1176
     12 C9          7.2267   -1.3674   -0.2673 C.3       1 <0>         0.1445
     13 H2          7.4660   -1.1252    0.7682 H         1 <0>         0.1667
     14 N2          7.4446   -2.8300   -0.5404 N.4       1 <0>        -0.5065
     15 C10         6.1343   -3.5263   -0.3713 C.3       1 <0>         0.0009
     16 C11         5.2033   -2.4713    0.2452 C.3       1 <0>        -0.1073
     17 H3          5.2666   -2.4034    1.3312 H         1 <0>         0.1700
     18 C12         3.8014   -2.3466   -0.2838 C.2       1 <0>         0.5501
     19 O2          3.0384   -3.2500   -0.5510 O.2       1 <0>        -0.4126
     20 C13         5.6098   -4.0045   -1.7267 C.3       1 <0>        -0.1302
     21 C14         6.5981   -5.0030   -2.3326 C.3       1 <0>        -0.1271
     22 C15         6.0736   -5.4812   -3.6880 C.3       1 <0>        -0.1518
     23 C16         7.0619   -6.4797   -4.2939 C.3       1 <0>        -0.0110
     24 N3          6.5583   -6.9388   -5.5953 N.4       1 <0>        -0.6380
     25 C17         6.2807   -4.6915    0.5731 C.2       1 <0>         0.5045
     26 O3          7.3708   -4.9554    1.0513 O.co2     1 <0>        -0.6536
     27 O4          5.3091   -5.3702    0.8591 O.co2     1 <0>        -0.6037
     28 C18         8.0317   -0.5167   -1.2157 C.ar      1 <0>        -0.1493
     29 C19         8.4626   -1.0414   -2.4190 C.ar      1 <0>        -0.1090
     30 C20         9.2016   -0.2609   -3.2900 C.ar      1 <0>        -0.0334
     31 C21         9.5107    1.0465   -2.9579 C.ar      1 <0>        -0.0672
     32 C22         9.0818    1.5746   -1.7559 C.ar      1 <0>        -0.1134
     33 C23         8.3357    0.7952   -0.8836 C.ar      1 <0>         0.1656
     34 O5          7.9075    1.3150    0.2970 O.3       1 <0>        -0.4777
     35 Cl1         9.7423   -0.9225   -4.8011 Cl        1 <0>        -0.0480
     36 H4         -1.2238    1.0689   -0.9478 H         1 <0>         0.1315
     37 H5          0.7520    2.5356   -0.8992 H         1 <0>         0.1344
     38 H6          3.0001    1.5673   -0.6426 H         1 <0>         0.1485
     39 H7          1.2872   -2.3470   -0.4899 H         1 <0>         0.1484
     40 H8         -0.9569   -1.3695   -0.7477 H         1 <0>         0.1344
     41 H9          7.7787   -2.9552   -1.4842 H         1 <0>         0.4086
     42 H10         4.6419   -4.4875   -1.5920 H         1 <0>         0.1349
     43 H11         5.4998   -3.1508   -2.3955 H         1 <0>         0.0734
     44 H12         7.5659   -4.5200   -2.4674 H         1 <0>         0.0626
     45 H13         6.7080   -5.8567   -1.6639 H         1 <0>         0.1047
     46 H14         5.1058   -5.9642   -3.5533 H         1 <0>         0.0999
     47 H15         5.9636   -4.6275   -4.3568 H         1 <0>         0.0896
     48 H16         8.0297   -5.9967   -4.4287 H         1 <0>         0.1341
     49 H17         7.1719   -7.3334   -3.6252 H         1 <0>         0.1401
     50 H18         7.2101   -7.5973   -5.9949 H         1 <0>         0.4405
     51 H19         5.6624   -7.3859   -5.4705 H         1 <0>         0.4379
     52 H20         8.2226   -2.0616   -2.6797 H         1 <0>         0.1255
     53 H21        10.0881    1.6542   -3.6390 H         1 <0>         0.1530
     54 H22         9.3236    2.5949   -1.4969 H         1 <0>         0.1574
     55 H23         8.5286    1.1942    1.0282 H         1 <0>         0.4041
     56 H24         8.1166   -3.2031    0.1132 H         1 <0>         0.4450
     57 H25         6.4565   -6.1485   -6.2143 H         1 <0>         0.4345
@<TRIPOS>BOND
     1    1    6 ar
     2    1    2 ar
     3    1   36 1
     4    2    3 ar
     5    2   37 1
     6    3    4 ar
     7    3   38 1
     8    4    5 ar
     9    4    7 1
    10    5    6 ar
    11    5   39 1
    12    6   40 1
    13    7   18 am
    14    7    8 am
    15    8    9 2
    16    8   10 1
    17   10   11 1
    18   10   16 1
    19   10   12 1
    20   12   13 1
    21   12   14 1
    22   12   28 1
    23   14   15 1
    24   14   41 1
    25   14   56 1
    26   15   16 1
    27   15   20 1
    28   15   25 1
    29   16   17 1
    30   16   18 1
    31   18   19 2
    32   20   21 1
    33   20   42 1
    34   20   43 1
    35   21   22 1
    36   21   44 1
    37   21   45 1
    38   22   23 1
    39   22   46 1
    40   22   47 1
    41   23   24 1
    42   23   48 1
    43   23   49 1
    44   24   50 1
    45   24   51 1
    46   24   57 1
    47   25   26 2
    48   25   27 1
    49   28   33 ar
    50   28   29 ar
    51   29   30 ar
    52   29   52 1
    53   30   31 ar
    54   30   35 1
    55   31   32 ar
    56   31   53 1
    57   32   33 ar
    58   32   54 1
    59   33   34 1
    60   34   55 1
@<TRIPOS>MOLECULE
ZINC39674065
   76    81     0     0     0
SMALL
USER_CHARGES

@<TRIPOS>ATOM
      1 C1         -5.4720   -3.3833   -7.2505 C.3       1 <0>        -0.0992
      2 C2         -4.4443   -4.0771   -6.3940 C.2       1 <0>         0.0936
      3 C3         -3.1152   -3.8603   -6.4203 C.2       1 <0>        -0.3073
      4 C4         -2.5151   -4.7064   -5.4705 C.2       1 <0>         0.0791
      5 N1         -3.4558   -5.4032   -4.8982 N.2       1 <0>        -0.2659
      6 O1         -4.6932   -5.0149   -5.4672 O.3       1 <0>        -0.0657
      7 C5         -1.0414   -4.7925   -5.1678 C.3       1 <0>         0.2016
      8 H1         -0.5119   -3.9562   -5.6243 H         1 <0>         0.1123
      9 C6         -0.8115   -4.8076   -3.6732 C.2       1 <0>        -0.3925
     10 C7         -0.2036   -5.9727   -3.3779 C.2       1 <0>         0.2827
     11 N2         -0.0096   -6.7183   -4.4986 N.pl3     1 <0>        -0.5602
     12 O2         -0.5070   -6.0385   -5.6389 O.3       1 <0>        -0.1294
     13 C8          0.2073   -6.3937   -1.9905 C.3       1 <0>        -0.1198
     14 C9         -1.1677   -3.7900   -2.7578 C.2       1 <0>         0.6301
     15 O3         -1.0611   -3.9837   -1.5602 O.2       1 <0>        -0.5351
     16 N3         -1.6250   -2.6059   -3.2109 N.am      1 <0>        -0.6220
     17 C10        -1.9788   -1.4052   -2.4177 C.3       1 <0>         0.1197
     18 C11        -1.4644   -0.2159   -3.2593 C.3       1 <0>        -0.1125
     19 H2         -0.4704    0.0828   -2.9265 H         1 <0>         0.1116
     20 C12        -1.4086   -0.7500   -4.7004 C.3       1 <0>        -0.0736
     21 C13        -1.8817   -2.2084   -4.6159 C.3       1 <0>         0.0871
     22 C14         0.0214   -0.6955   -5.2292 C.3       1 <0>        -0.1369
     23 C15         0.0420   -1.1779   -6.6824 C.3       1 <0>        -0.0144
     24 N4         -0.8345   -0.3258   -7.4951 N.4       1 <0>        -0.5038
     25 C16        -2.2233   -0.4556   -7.0382 C.3       1 <0>        -0.0167
     26 C17        -2.3397    0.0571   -5.5999 C.3       1 <0>        -0.1461
     27 C18        -2.4195    0.9460   -3.1645 C.2       1 <0>         0.5188
     28 O4         -3.6045    0.7452   -3.0022 O.2       1 <0>        -0.5192
     29 N5         -1.9568    2.2082   -3.2600 N.am      1 <0>        -0.7287
     30 C19        -2.8662    3.3390   -3.0585 C.3       1 <0>         0.1215
     31 C20        -2.0939    4.6498   -3.2210 C.3       1 <0>        -0.0473
     32 C21        -3.0294    5.8129   -3.0137 C.2       1 <0>        -0.1798
     33 C22        -3.3207    6.4811   -1.7430 C.ar      1 <0>        -0.0982
     34 C23        -2.8861    6.2991   -0.4290 C.ar      1 <0>        -0.0759
     35 C24        -3.3597    7.1132    0.5612 C.ar      1 <0>        -0.1396
     36 C25        -4.2701    8.1198    0.2711 C.ar      1 <0>        -0.0957
     37 C26        -4.7124    8.3170   -1.0189 C.ar      1 <0>        -0.1277
     38 C27        -4.2433    7.5004   -2.0424 C.ar      1 <0>         0.0969
     39 N6         -4.4852    7.4441   -3.3968 N.pl3     1 <0>        -0.5910
     40 C28        -3.7493    6.4370   -3.9593 C.2       1 <0>         0.0909
     41 H3         -5.0849    8.0333   -3.8806 H         1 <0>         0.4165
     42 C29        -3.7500    6.0788   -5.4231 C.3       1 <0>        -0.0952
     43 H4         -6.4646   -3.7605   -7.0042 H         1 <0>         0.0938
     44 H5         -5.4349   -2.3099   -7.0648 H         1 <0>         0.0969
     45 H6         -5.2599   -3.5778   -8.3018 H         1 <0>         0.1011
     46 H7         -2.5999   -3.1590   -7.0598 H         1 <0>         0.1473
     47 H8          0.4108   -7.5923   -4.5156 H         1 <0>         0.4580
     48 H9         -0.6105   -6.9389   -1.5191 H         1 <0>         0.1045
     49 H10         1.0853   -7.0367   -2.0511 H         1 <0>         0.0828
     50 H11         0.4442   -5.5101   -1.3979 H         1 <0>         0.1173
     51 H12        -3.0591   -1.3400   -2.2881 H         1 <0>         0.0934
     52 H13        -1.4798   -1.4291   -1.4489 H         1 <0>         0.0965
     53 H14        -1.3074   -2.8339   -5.2992 H         1 <0>         0.0895
     54 H15        -2.9460   -2.2744   -4.8416 H         1 <0>         0.0864
     55 H16         0.3884    0.3297   -5.1809 H         1 <0>         0.1004
     56 H17         0.6584   -1.3395   -4.6229 H         1 <0>         0.1210
     57 H18         1.0600   -1.1246   -7.0683 H         1 <0>         0.1443
     58 H19        -0.3098   -2.2086   -6.7278 H         1 <0>         0.1257
     59 H20        -0.5416    0.6358   -7.4078 H         1 <0>         0.4300
     60 H21        -2.8751    0.1303   -7.6863 H         1 <0>         0.1428
     61 H22        -2.5214   -1.5034   -7.0754 H         1 <0>         0.1291
     62 H23        -3.3675   -0.0564   -5.2552 H         1 <0>         0.1274
     63 H24        -2.0577    1.1094   -5.5648 H         1 <0>         0.0992
     64 H25        -1.0216    2.3680   -3.4622 H         1 <0>         0.3992
     65 H26        -3.6682    3.2960   -3.7954 H         1 <0>         0.0706
     66 H27        -3.2909    3.2894   -2.0559 H         1 <0>         0.0738
     67 H28        -1.2919    4.6927   -2.4841 H         1 <0>         0.0772
     68 H29        -1.6692    4.6993   -4.2236 H         1 <0>         0.0720
     69 H30        -2.1783    5.5174   -0.1957 H         1 <0>         0.1193
     70 H31        -3.0232    6.9719    1.5776 H         1 <0>         0.1244
     71 H32        -4.6359    8.7547    1.0645 H         1 <0>         0.1281
     72 H33        -5.4213    9.1028   -1.2345 H         1 <0>         0.1217
     73 H34        -4.5270    5.3390   -5.6158 H         1 <0>         0.0772
     74 H35        -3.9443    6.9727   -6.0158 H         1 <0>         0.0711
     75 H36        -2.7791    5.6656   -5.6965 H         1 <0>         0.0815
     76 H37        -0.7723   -0.6071   -8.4621 H         1 <0>         0.4340
@<TRIPOS>BOND
     1    1    2 1
     2    1   43 1
     3    1   44 1
     4    1   45 1
     5    2    6 1
     6    2    3 2
     7    3    4 1
     8    3   46 1
     9    4    5 2
    10    4    7 1
    11    5    6 1
    12    7    8 1
    13    7   12 1
    14    7    9 1
    15    9   10 2
    16    9   14 1
    17   10   11 1
    18   10   13 1
    19   11   12 1
    20   11   47 1
    21   13   48 1
    22   13   49 1
    23   13   50 1
    24   14   15 2
    25   14   16 am
    26   16   21 1
    27   16   17 1
    28   17   18 1
    29   17   51 1
    30   17   52 1
    31   18   19 1
    32   18   20 1
    33   18   27 1
    34   20   26 1
    35   20   21 1
    36   20   22 1
    37   21   53 1
    38   21   54 1
    39   22   23 1
    40   22   55 1
    41   22   56 1
    42   23   24 1
    43   23   57 1
    44   23   58 1
    45   24   25 1
    46   24   59 1
    47   24   76 1
    48   25   26 1
    49   25   60 1
    50   25   61 1
    51   26   62 1
    52   26   63 1
    53   27   28 2
    54   27   29 am
    55   29   30 1
    56   29   64 1
    57   30   31 1
    58   30   65 1
    59   30   66 1
    60   31   67 1
    61   31   68 1
    62   31   32 1
    63   32   33 1
    64   32   40 2
    65   33   34 ar
    66   33   38 ar
    67   34   35 ar
    68   34   69 1
    69   35   36 ar
    70   35   70 1
    71   36   37 ar
    72   36   71 1
    73   37   38 ar
    74   37   72 1
    75   38   39 1
    76   39   41 1
    77   39   40 1
    78   40   42 1
    79   42   73 1
    80   42   74 1
    81   42   75 1
@<TRIPOS>MOLECULE
ZINC63818056
   53    56     0     0     0
SMALL
USER_CHARGES

@<TRIPOS>ATOM
      1 C1          0.0621    1.4854    0.0176 C.ar      1 <0>         0.0200
      2 C2          1.1928    2.2217    0.0041 C.ar      1 <0>        -0.1730
      3 C3          2.4653    1.5859   -0.0146 C.ar      1 <0>         0.3255
      4 N1          3.6829    2.0714   -0.0307 N.pl3     1 <0>        -0.5735
      5 C4          4.6322    0.9529   -0.0462 C.3       1 <0>         0.0596
      6 C5          3.7919   -0.3045   -0.0369 C.2       1 <0>         0.0737
      7 C6          2.5035    0.1060   -0.0180 C.ar      1 <0>        -0.1485
      8 C7          1.2288   -0.6216   -0.0020 C.ar      1 <0>        -0.0656
      9 C8          0.0717    0.0815    0.0147 C.ar      1 <0>         0.0854
     10 F1         -1.1034   -0.5850    0.0294 F         1 <0>        -0.1102
     11 C9          4.2896   -1.7269   -0.0471 C.3       1 <0>        -0.1056
     12 C10         4.5567   -2.1635   -1.4889 C.3       1 <0>         0.1246
     13 N2          5.0405   -3.5462   -1.4989 N.am      1 <0>        -0.7286
     14 C11         5.3429   -4.1460   -2.6673 C.2       1 <0>         0.4965
     15 O1          5.2145   -3.5410   -3.7106 O.2       1 <0>        -0.4953
     16 C12         5.8406   -5.5684   -2.6775 C.3       1 <0>         0.1892
     17 H1          5.1719   -6.1994   -2.0920 H         1 <0>         0.1216
     18 N3          7.2057   -5.6272   -2.1173 N.3       1 <0>        -0.6827
     19 C13         8.0712   -6.1775   -3.1872 C.3       1 <0>         0.2154
     20 H2          8.5584   -5.3731   -3.7381 H         1 <0>         0.1097
     21 N4          7.1193   -6.9107   -4.0640 N.3       1 <0>        -0.4305
     22 O2          5.9110   -6.0530   -4.0311 O.3       1 <0>        -0.1974
     23 C14         9.1120   -7.1327   -2.5996 C.3       1 <0>        -0.1338
     24 C15        10.0533   -7.5811   -3.6877 C.2       1 <0>         0.5123
     25 O3          9.9061   -7.1764   -4.8216 O.2       1 <0>        -0.4956
     26 N5         11.0586   -8.4317   -3.4009 N.am      1 <0>        -0.6681
     27 C16        11.8764   -8.9217   -4.4281 C.ar      1 <0>         0.1000
     28 C17        12.1871   -8.1151   -5.5139 C.ar      1 <0>        -0.0642
     29 C18        12.9934   -8.5997   -6.5256 C.ar      1 <0>        -0.1423
     30 C19        13.4923   -9.8897   -6.4579 C.ar      1 <0>         0.1218
     31 C20        13.1843  -10.6976   -5.3765 C.ar      1 <0>        -0.1726
     32 C21        12.3825  -10.2148   -4.3582 C.ar      1 <0>         0.1065
     33 F2         12.0866  -11.0007   -3.2999 F         1 <0>        -0.1275
     34 F3         14.2805  -10.3608   -7.4488 F         1 <0>        -0.1269
     35 H3         -0.8889    1.9969    0.0359 H         1 <0>         0.1755
     36 H4          1.1314    3.2999    0.0070 H         1 <0>         0.1735
     37 H5          5.2423    0.9904   -0.9487 H         1 <0>         0.1799
     38 H6          5.2673    0.9869    0.8390 H         1 <0>         0.1806
     39 H7          1.2141   -1.7015   -0.0036 H         1 <0>         0.1725
     40 H8          5.2123   -1.7932    0.5294 H         1 <0>         0.1223
     41 H9          3.5366   -2.3785    0.3963 H         1 <0>         0.1186
     42 H10         3.6340   -2.0972   -2.0655 H         1 <0>         0.0820
     43 H11         5.3097   -1.5119   -1.9323 H         1 <0>         0.0808
     44 H12         5.1432   -4.0301   -0.6645 H         1 <0>         0.4104
     45 H13         7.5198   -4.7113   -1.8334 H         1 <0>         0.3586
     46 H14         6.9195   -7.8278   -3.6937 H         1 <0>         0.3501
     47 H15         9.6757   -6.6208   -1.8197 H         1 <0>         0.1215
     48 H16         8.6089   -8.0010   -2.1738 H         1 <0>         0.1134
     49 H17        11.2161   -8.7047   -2.4835 H         1 <0>         0.4164
     50 H18        11.7983   -7.1089   -5.5681 H         1 <0>         0.1597
     51 H19        13.2346   -7.9718   -7.3705 H         1 <0>         0.1494
     52 H20        13.5742  -11.7035   -5.3259 H         1 <0>         0.1554
     53 H21         3.9170    3.0127   -0.0324 H         1 <0>         0.4592
@<TRIPOS>BOND
     1    1    9 ar
     2    1    2 ar
     3    1   35 1
     4    2    3 ar
     5    2   36 1
     6    3    7 ar
     7    3    4 2
     8    4    5 1
     9    4   53 1
    10    5    6 1
    11    5   37 1
    12    5   38 1
    13    6    7 2
    14    6   11 1
    15    7    8 ar
    16    8    9 ar
    17    8   39 1
    18    9   10 1
    19   11   12 1
    20   11   40 1
    21   11   41 1
    22   12   13 1
    23   12   42 1
    24   12   43 1
    25   13   14 am
    26   13   44 1
    27   14   15 2
    28   14   16 1
    29   16   17 1
    30   16   22 1
    31   16   18 1
    32   18   19 1
    33   18   45 1
    34   19   20 1
    35   19   21 1
    36   19   23 1
    37   21   22 1
    38   21   46 1
    39   23   24 1
    40   23   47 1
    41   23   48 1
    42   24   25 2
    43   24   26 am
    44   26   27 1
    45   26   49 1
    46   27   32 ar
    47   27   28 ar
    48   28   29 ar
    49   28   50 1
    50   29   30 ar
    51   29   51 1
    52   30   31 ar
    53   30   34 1
    54   31   32 ar
    55   31   52 1
    56   32   33 1
@<TRIPOS>MOLECULE
ZINC06187984
   57    60     0     0     0
SMALL
USER_CHARGES
1-[2-(2-hydroxyethylamino)ethyl]-4-(hydroxy-phenyl-methylene)-5-(5-methyl-1H-indol-3-yl)-pyrrolidine-2,3-dione
@<TRIPOS>ATOM
      1 C1         -1.1520    1.6787    0.3827 C.3       1 <0>        -0.1131
      2 C2         -1.4795    2.0309    1.8109 C.ar      1 <0>        -0.1087
      3 C3         -2.7934    2.2992    2.1701 C.ar      1 <0>        -0.0912
      4 C4         -3.1151    2.6175    3.4712 C.ar      1 <0>        -0.1267
      5 C5         -2.1134    2.6824    4.4345 C.ar      1 <0>         0.0911
      6 C6         -0.7829    2.4152    4.0642 C.ar      1 <0>        -0.0823
      7 C7         -0.4801    2.0889    2.7408 C.ar      1 <0>        -0.0605
      8 C8          0.0144    2.5635    5.2842 C.2       1 <0>        -0.1940
      9 C9         -0.8346    2.8942    6.2700 C.2       1 <0>         0.0681
     10 N1         -2.1104    2.9699    5.7810 N.pl3     1 <0>        -0.5909
     11 H1         -2.8956    3.1932    6.3049 H         1 <0>         0.4190
     12 C10         1.5050    2.3803    5.4088 C.3       1 <0>         0.2831
     13 H2          1.8401    1.5857    4.7421 H         1 <0>         0.0976
     14 C11         2.2148    3.6714    5.0728 C.2       1 <0>        -0.3446
     15 C12         2.1731    4.3526    3.8738 C.2       1 <0>         0.3196
     16 C13         2.8004    5.6810    3.7590 C.ar      1 <0>        -0.1455
     17 C14         2.5033    6.6814    4.6900 C.ar      1 <0>        -0.0391
     18 C15         3.0976    7.9205    4.5783 C.ar      1 <0>        -0.1210
     19 C16         3.9785    8.1786    3.5422 C.ar      1 <0>        -0.0813
     20 C17         4.2739    7.1952    2.6140 C.ar      1 <0>        -0.1231
     21 C18         3.6914    5.9496    2.7151 C.ar      1 <0>        -0.0865
     22 O1          1.5575    3.8022    2.8059 O.3       1 <0>        -0.4219
     23 C19         2.9257    4.0380    6.2274 C.2       1 <0>         0.3867
     24 O2          3.6254    5.0265    6.3518 O.2       1 <0>        -0.3983
     25 C20         2.6757    3.0078    7.2720 C.2       1 <0>         0.4868
     26 O3          3.1437    3.0249    8.3920 O.2       1 <0>        -0.4816
     27 N2          1.8567    2.0559    6.7942 N.am      1 <0>        -0.5990
     28 C21         1.3905    0.8830    7.5379 C.3       1 <0>         0.1071
     29 C22         2.3700   -0.2741    7.3316 C.3       1 <0>        -0.0289
     30 C23         2.8205   -2.5837    7.9023 C.3       1 <0>         0.0016
     31 C24         2.3015   -3.7870    8.6919 C.3       1 <0>         0.0441
     32 O4          1.0572   -4.2194    8.1380 O.3       1 <0>        -0.5823
     33 H3         -1.2137    0.5984    0.2516 H         1 <0>         0.0679
     34 H4         -0.1427    2.0163    0.1475 H         1 <0>         0.0650
     35 H5         -1.8630    2.1667   -0.2840 H         1 <0>         0.0663
     36 H6         -3.5718    2.2536    1.4229 H         1 <0>         0.1268
     37 H7         -4.1408    2.8206    3.7415 H         1 <0>         0.1213
     38 H8          0.5404    1.8836    2.4531 H         1 <0>         0.1267
     39 H9         -0.5526    3.0735    7.2970 H         1 <0>         0.1616
     40 H10         1.8127    6.4828    5.4963 H         1 <0>         0.1228
     41 H11         2.8721    8.6929    5.2986 H         1 <0>         0.1324
     42 H12         4.4374    9.1526    3.4574 H         1 <0>         0.1320
     43 H13         4.9622    7.4041    1.8084 H         1 <0>         0.1338
     44 H14         3.9223    5.1834    1.9897 H         1 <0>         0.1309
     45 H15         1.6208    4.4258    2.0267 H         1 <0>         0.4144
     46 H16         1.3325    1.1251    8.5991 H         1 <0>         0.1076
     47 H17         0.4038    0.5925    7.1770 H         1 <0>         0.1096
     48 H18         2.4280   -0.5162    6.2704 H         1 <0>         0.1371
     49 H19         3.3567    0.0163    7.6924 H         1 <0>         0.1362
     50 H20         2.8817   -2.8418    6.8450 H         1 <0>         0.1388
     51 H21         3.8103   -2.3092    8.2671 H         1 <0>         0.1447
     52 H22         3.0263   -4.5991    8.6347 H         1 <0>         0.0966
     53 H23         2.1561   -3.5025    9.7340 H         1 <0>         0.0733
     54 H24         0.6688   -4.9808    8.5902 H         1 <0>         0.4103
     55 N3          1.8936   -1.4506    8.0832 N.4       1 <0>        -0.5134
     56 H25         0.9626   -1.7166    7.7414 H         1 <0>         0.4403
     57 H26         1.8374   -1.2150    9.0810 H         1 <0>         0.4327
@<TRIPOS>BOND
     1    1    2 1
     2    1   33 1
     3    1   34 1
     4    1   35 1
     5    2    7 ar
     6    2    3 ar
     7    3    4 ar
     8    3   36 1
     9    4    5 ar
    10    4   37 1
    11    5   10 1
    12    5    6 ar
    13    6    7 ar
    14    6    8 1
    15    7   38 1
    16    8    9 2
    17    8   12 1
    18    9   10 1
    19    9   39 1
    20   10   11 1
    21   12   13 1
    22   12   27 1
    23   12   14 1
    24   14   15 2
    25   14   23 1
    26   15   16 1
    27   15   22 1
    28   16   21 ar
    29   16   17 ar
    30   17   18 ar
    31   17   40 1
    32   18   19 ar
    33   18   41 1
    34   19   20 ar
    35   19   42 1
    36   20   21 ar
    37   20   43 1
    38   21   44 1
    39   22   45 1
    40   23   24 2
    41   23   25 1
    42   25   26 2
    43   25   27 am
    44   27   28 1
    45   28   29 1
    46   28   46 1
    47   28   47 1
    48   29   48 1
    49   29   49 1
    50   29   55 1
    51   30   31 1
    52   30   50 1
    53   30   51 1
    54   30   55 1
    55   31   32 1
    56   31   52 1
    57   31   53 1
    58   32   54 1
    59   55   56 1
    60   55   57 1
@<TRIPOS>MOLECULE
ZINC24905539
   62    63     0     0     0
SMALL
USER_CHARGES
(2R)-N-[1-(2-amino-2-oxo-ethyl)-4-piperidyl]-4-methyl-2-(p-tolylsulfonylamino)pentanamide
@<TRIPOS>ATOM
      1 C1          5.3070    5.5721   -4.3876 C.3       1 <0>        -0.1318
      2 C2          4.5980    4.4141   -3.7339 C.ar      1 <0>        -0.0213
      3 C3          5.3285    3.4150   -3.1180 C.ar      1 <0>        -0.1378
      4 C4          4.6781    2.3528   -2.5184 C.ar      1 <0>        -0.0094
      5 C5          3.2973    2.2900   -2.5339 C.ar      1 <0>        -0.6927
      6 C6          2.5670    3.2866   -3.1539 C.ar      1 <0>        -0.0226
      7 C7          3.2172    4.3511   -3.7498 C.ar      1 <0>        -0.1419
      8 S1          2.4683    0.9361   -1.7695 S.o2      1 <0>         2.6902
      9 O1          3.3663   -0.1646   -1.8091 O.2       1 <0>        -0.9502
     10 O2          1.1689    0.8800   -2.3418 O.2       1 <0>        -0.9495
     11 N1          2.2658    1.3244   -0.1725 N.pl3     1 <0>        -1.1044
     12 C8          1.4690    2.4956    0.2012 C.3       1 <0>         0.1467
     13 H1          1.4924    3.1967   -0.6461 H         1 <0>         0.1052
     14 C9          2.0603    3.1344    1.4594 C.3       1 <0>        -0.1160
     15 C10         3.4465    3.6987    1.1416 C.3       1 <0>        -0.0931
     16 C11         3.9626    4.4910    2.3445 C.3       1 <0>        -0.1511
     17 C12         4.4082    2.5481    0.8381 C.3       1 <0>        -0.1703
     18 C13         0.0489    2.0710    0.4733 C.2       1 <0>         0.5066
     19 O3         -0.2666    0.9049    0.3657 O.2       1 <0>        -0.5056
     20 N2         -0.8719    2.9879    0.8308 N.am      1 <0>        -0.7446
     21 C14        -2.2538    2.5760    1.0895 C.3       1 <0>         0.1367
     22 C15        -3.0311    2.5357   -0.2291 C.3       1 <0>        -0.1621
     23 C16        -4.4884    2.1642    0.0546 C.3       1 <0>         0.0008
     24 N3         -5.0798    3.1557    0.9620 N.4       1 <0>        -0.3883
     25 C17        -4.3794    3.1789    2.2525 C.3       1 <0>        -0.0037
     26 C18        -2.9189    3.5807    2.0344 C.3       1 <0>        -0.1496
     27 C19        -6.5161    2.9092    1.1471 C.3       1 <0>        -0.0315
     28 C20        -7.1393    4.0816    1.8600 C.2       1 <0>         0.5079
     29 O4         -6.4805    5.0749    2.0841 O.2       1 <0>        -0.5420
     30 N4         -8.4286    4.0262    2.2485 N.am      1 <0>        -0.8525
     31 H2          6.3940    5.4483   -4.2731 H         1 <0>         0.0740
     32 H3          4.9926    6.5116   -3.9096 H         1 <0>         0.0797
     33 H4          5.0519    5.6016   -5.4572 H         1 <0>         0.0808
     34 H5          6.4073    3.4643   -3.1056 H         1 <0>         0.1351
     35 H6          5.2488    1.5721   -2.0376 H         1 <0>         0.1398
     36 H7          1.4883    3.2353   -3.1698 H         1 <0>         0.1356
     37 H8          2.6465    5.1317   -4.2306 H         1 <0>         0.1326
     38 H9          2.8629    0.8000    0.5881 H         1 <0>         0.4520
     39 H10         1.4030    3.9474    1.8014 H         1 <0>         0.0825
     40 H11         2.1461    2.3750    2.2505 H         1 <0>         0.0847
     41 H12         3.3806    4.3620    0.2665 H         1 <0>         0.0742
     42 H13         4.9592    4.8967    2.1160 H         1 <0>         0.0603
     43 H14         4.0285    3.8277    3.2195 H         1 <0>         0.0580
     44 H15         3.2711    5.3182    2.5627 H         1 <0>         0.0556
     45 H16         5.4048    2.9538    0.6096 H         1 <0>         0.0619
     46 H17         4.0371    1.9785   -0.0267 H         1 <0>         0.0567
     47 H18         4.4741    1.8848    1.7132 H         1 <0>         0.0629
     48 H19        -0.5858    4.0456    0.9283 H         1 <0>         0.4257
     49 H20        -2.2099    1.5773    1.5484 H         1 <0>         0.1047
     50 H21        -2.9897    3.5244   -0.7095 H         1 <0>         0.0930
     51 H22        -2.5827    1.7849   -0.8963 H         1 <0>         0.1222
     52 H23        -5.0532    2.1487   -0.8892 H         1 <0>         0.1361
     53 H24        -4.5288    1.1695    0.5225 H         1 <0>         0.1314
     54 H25        -4.8639    3.9071    2.9196 H         1 <0>         0.1435
     55 H26        -4.4199    2.1792    2.7097 H         1 <0>         0.1266
     56 H27        -2.3895    3.5831    2.9986 H         1 <0>         0.1190
     57 H28        -2.8758    4.5860    1.5900 H         1 <0>         0.0973
     58 H29        -6.9954    2.7800    0.1655 H         1 <0>         0.1614
     59 H30        -6.6575    1.9980    1.7469 H         1 <0>         0.1554
     60 H31        -8.8835    4.8819    2.7689 H         1 <0>         0.4499
     61 H32        -9.0260    3.1252    2.0452 H         1 <0>         0.4362
     62 H33        -4.9620    4.1464    0.4986 H         1 <0>         0.4494
@<TRIPOS>BOND
     1    1    2 1
     2    1   31 1
     3    1   32 1
     4    1   33 1
     5    2    7 ar
     6    2    3 ar
     7    3    4 ar
     8    3   34 1
     9    4    5 ar
    10    4   35 1
    11    5    6 ar
    12    5    8 1
    13    6    7 ar
    14    6   36 1
    15    7   37 1
    16    8    9 2
    17    8   10 2
    18    8   11 1
    19   11   12 1
    20   11   38 1
    21   12   13 1
    22   12   14 1
    23   12   18 1
    24   14   15 1
    25   14   39 1
    26   14   40 1
    27   15   16 1
    28   15   17 1
    29   15   41 1
    30   16   42 1
    31   16   43 1
    32   16   44 1
    33   17   45 1
    34   17   46 1
    35   17   47 1
    36   18   19 2
    37   18   20 am
    38   20   21 1
    39   20   48 1
    40   21   26 1
    41   21   22 1
    42   21   49 1
    43   22   23 1
    44   22   50 1
    45   22   51 1
    46   23   24 1
    47   23   52 1
    48   23   53 1
    49   24   25 1
    50   24   27 1
    51   24   62 1
    52   25   26 1
    53   25   54 1
    54   25   55 1
    55   26   56 1
    56   26   57 1
    57   27   28 1
    58   27   58 1
    59   27   59 1
    60   28   29 2
    61   28   30 am
    62   30   60 1
    63   30   61 1
@<TRIPOS>MOLECULE
ZINC40782423
   43    45     0     0     0
SMALL
USER_CHARGES

@<TRIPOS>ATOM
      1 C1          1.0753   -0.4581   -0.7596 C.ar      1 <0>        -0.1126
      2 C2          2.2591    0.2530   -0.7722 C.ar      1 <0>        -0.0629
      3 C3          2.3765    1.4166   -0.0332 C.ar      1 <0>        -0.1189
      4 C4          1.3092    1.8719    0.7199 C.ar      1 <0>        -0.0615
      5 C5          0.1226    1.1655    0.7363 C.ar      1 <0>        -0.1510
      6 C6          0.0017   -0.0036   -0.0043 C.ar      1 <0>         0.1817
      7 N1         -1.1979   -0.7208    0.0101 N.pl3     1 <0>        -0.6542
      8 C7         -1.1808   -2.1065   -0.1025 C.ar      1 <0>         0.3925
      9 C8         -2.3738   -2.8242   -0.2060 C.ar      1 <0>         0.0086
     10 C9         -2.2996   -4.2138   -0.3173 C.ar      1 <0>         0.4003
     11 N2         -1.1034   -4.7973   -0.3203 N.ar      1 <0>        -0.5679
     12 C10        -0.0010   -4.0826   -0.2204 C.ar      1 <0>         0.3272
     13 N3         -0.0265   -2.7691   -0.1187 N.ar      1 <0>        -0.5535
     14 N4         -3.4569   -4.9760   -0.4227 N.pl3     1 <0>        -0.7238
     15 C11        -3.3659   -6.4336   -0.5389 C.3       1 <0>         0.1410
     16 C12        -4.7730   -7.0260   -0.6396 C.3       1 <0>        -0.1561
     17 C13        -4.6780   -8.5482   -0.7609 C.3       1 <0>         0.0962
     18 N5         -6.0253   -9.1155   -0.8574 N.pl3     1 <0>        -0.4081
     19 C14        -6.8152   -9.5144    0.1868 C.2       1 <0>         0.0256
     20 C15        -7.9648   -9.9704   -0.3464 C.2       1 <0>         0.0041
     21 N6         -7.8791   -9.8530   -1.6797 N.pl3     1 <0>        -0.4762
     22 C16        -6.7220   -9.3369   -1.9928 C.cat     1 <0>         0.2884
     23 N7         -3.6143   -2.1663   -0.1981 N.pl3     1 <0>        -0.8757
     24 I1          4.1748    2.4913   -0.0543 I         1 <0>        -0.0416
     25 H1          0.9829   -1.3642   -1.3400 H         1 <0>         0.1431
     26 H2          3.0941   -0.0998   -1.3592 H         1 <0>         0.1319
     27 H3          1.4040    2.7804    1.2961 H         1 <0>         0.1326
     28 H4         -0.7102    1.5212    1.3247 H         1 <0>         0.1303
     29 H5         -2.0423   -0.2518    0.0986 H         1 <0>         0.4149
     30 H6          0.9531   -4.5886   -0.2261 H         1 <0>         0.1997
     31 H7         -4.3249   -4.5430   -0.4194 H         1 <0>         0.4038
     32 H8         -2.7980   -6.6921   -1.4326 H         1 <0>         0.0749
     33 H9         -2.8638   -6.8375    0.3402 H         1 <0>         0.0750
     34 H10        -5.3409   -6.7675    0.2541 H         1 <0>         0.0865
     35 H11        -5.2752   -6.6221   -1.5187 H         1 <0>         0.0844
     36 H12        -4.1101   -8.8067   -1.6547 H         1 <0>         0.1273
     37 H13        -4.1758   -8.9521    0.1181 H         1 <0>         0.1299
     38 H14        -6.5647   -9.4721    1.2365 H         1 <0>         0.2232
     39 H15        -8.8080  -10.3619    0.2034 H         1 <0>         0.2241
     40 H16        -6.3777   -9.1246   -2.9942 H         1 <0>         0.2601
     41 H17        -3.6505   -1.2002   -0.1199 H         1 <0>         0.3972
     42 H18        -4.4352   -2.6781   -0.2708 H         1 <0>         0.3936
     43 H19        -8.5696  -10.1079   -2.3114 H         1 <0>         0.4657
@<TRIPOS>BOND
     1    1    6 ar
     2    1    2 ar
     3    1   25 1
     4    2    3 ar
     5    2   26 1
     6    3    4 ar
     7    3   24 1
     8    4    5 ar
     9    4   27 1
    10    5    6 ar
    11    5   28 1
    12    6    7 1
    13    7    8 1
    14    7   29 1
    15    8   13 ar
    16    8    9 ar
    17    9   10 ar
    18    9   23 1
    19   10   11 ar
    20   10   14 1
    21   11   12 ar
    22   12   13 ar
    23   12   30 1
    24   14   15 1
    25   14   31 1
    26   15   16 1
    27   15   32 1
    28   15   33 1
    29   16   17 1
    30   16   34 1
    31   16   35 1
    32   17   18 1
    33   17   36 1
    34   17   37 1
    35   18   22 1
    36   18   19 1
    37   19   20 2
    38   19   38 1
    39   20   21 1
    40   20   39 1
    41   21   22 2
    42   21   43 1
    43   22   40 1
    44   23   41 1
    45   23   42 1
@<TRIPOS>MOLECULE
ZINC13634118
   44    46     0     0     0
SMALL
USER_CHARGES

@<TRIPOS>ATOM
      1 C1          1.5641    0.4469   -4.5518 C.3       1 <0>        -0.0684
      2 C2          1.3883   -0.9343   -3.9750 C.2       1 <0>         0.0943
      3 N1          1.5039   -2.1134   -4.5514 N.2       1 <0>        -0.2766
      4 N2          1.3219   -3.1906   -3.9212 N.2       1 <0>        -0.2716
      5 C3          1.0015   -3.2015   -2.6334 C.2       1 <0>         0.0061
      6 S1          0.9705   -1.4407   -2.3092 S.3       1 <0>         0.0331
      7 S2          0.7002   -4.5591   -1.5514 S.3       1 <0>         0.0718
      8 C4          0.9279   -6.0185   -2.6044 C.3       1 <0>        -0.0828
      9 C5          0.6960   -7.2658   -1.7912 C.2       1 <0>         0.2048
     10 C6         -0.4568   -7.9781   -1.9502 C.2       1 <0>        -0.2297
     11 C7         -0.6498   -9.1389   -1.1795 C.2       1 <0>         0.5410
     12 O1         -1.6683   -9.8004   -1.2960 O.2       1 <0>        -0.4797
     13 N3          0.3141   -9.5072   -0.3087 N.am      1 <0>        -0.6233
     14 C8          1.4427   -8.7569   -0.1935 C.2       1 <0>         0.6243
     15 N4          1.6187   -7.6741   -0.9226 N.2       1 <0>        -0.5709
     16 N5          2.4185   -9.1381    0.6951 N.pl3     1 <0>        -0.6225
     17 C9          3.5094   -8.3217    0.9141 C.cat     1 <0>         0.7600
     18 N6          4.5275   -8.7639    1.5953 N.pl3     1 <0>        -0.7449
     19 N7          3.5215   -7.0401    0.4126 N.pl3     1 <0>        -0.6088
     20 C10         4.6561   -6.2377    0.5711 C.ar      1 <0>         0.0987
     21 C11         4.7582   -5.3844    1.6625 C.ar      1 <0>        -0.0965
     22 C12         5.8796   -4.5935    1.8161 C.ar      1 <0>        -0.0705
     23 C13         6.9006   -4.6503    0.8848 C.ar      1 <0>        -0.0806
     24 C14         6.8021   -5.4985   -0.2026 C.ar      1 <0>        -0.0567
     25 C15         5.6855   -6.2965   -0.3591 C.ar      1 <0>        -0.1658
     26 C16         5.5819   -7.2256   -1.5410 C.3       1 <0>         0.5061
     27 F1          6.7317   -7.1074   -2.3293 F         1 <0>        -0.1617
     28 F2          5.4601   -8.5438   -1.0887 F         1 <0>        -0.1850
     29 F3          4.4578   -6.8881   -2.3024 F         1 <0>        -0.1628
     30 H1          2.6048    0.7541   -4.4483 H         1 <0>         0.1032
     31 H2          1.2914    0.4373   -5.6071 H         1 <0>         0.1078
     32 H3          0.9234    1.1481   -4.0172 H         1 <0>         0.0972
     33 H4          0.2168   -5.9854   -3.4299 H         1 <0>         0.1353
     34 H5          1.9436   -6.0262   -3.0000 H         1 <0>         0.1306
     35 H6         -1.2085   -7.6560   -2.6556 H         1 <0>         0.1822
     36 H7          5.2590   -8.1668    1.8169 H         1 <0>         0.4499
     37 H8          2.7431   -6.6933   -0.0509 H         1 <0>         0.4561
     38 H9          3.9612   -5.3394    2.3899 H         1 <0>         0.1519
     39 H10         5.9595   -3.9297    2.6642 H         1 <0>         0.1553
     40 H11         7.7765   -4.0304    1.0070 H         1 <0>         0.1554
     41 H12         7.6009   -5.5402   -0.9283 H         1 <0>         0.1580
     42 H13         4.5542   -9.6905    1.8811 H         1 <0>         0.4479
     43 H14         2.3408   -9.9811    1.1686 H         1 <0>         0.4588
     44 H15         0.2020  -10.3039    0.2331 H         1 <0>         0.4289
@<TRIPOS>BOND
     1    1    2 1
     2    1   30 1
     3    1   31 1
     4    1   32 1
     5    2    6 1
     6    2    3 2
     7    3    4 1
     8    4    5 2
     9    5    6 1
    10    5    7 1
    11    7    8 1
    12    8    9 1
    13    8   33 1
    14    8   34 1
    15    9   15 1
    16    9   10 2
    17   10   11 1
    18   10   35 1
    19   11   12 2
    20   11   13 am
    21   13   14 1
    22   13   44 1
    23   14   15 2
    24   14   16 1
    25   16   17 1
    26   16   43 1
    27   17   18 2
    28   17   19 1
    29   18   36 1
    30   18   42 1
    31   19   20 1
    32   19   37 1
    33   20   25 ar
    34   20   21 ar
    35   21   22 ar
    36   21   38 1
    37   22   23 ar
    38   22   39 1
    39   23   24 ar
    40   23   40 1
    41   24   25 ar
    42   24   41 1
    43   25   26 1
    44   26   27 1
    45   26   28 1
    46   26   29 1
@<TRIPOS>MOLECULE
ZINC63795227
   53    56     0     0     0
SMALL
USER_CHARGES

@<TRIPOS>ATOM
      1 C1         -0.0163    1.3482    0.0095 C.ar      1 <0>        -0.1496
      2 C2          1.1658    2.1014    0.0022 C.ar      1 <0>         0.0555
      3 C3          2.3912    1.5352   -0.0125 C.ar      1 <0>        -0.2100
      4 C4          2.5288    0.1198   -0.0218 C.ar      1 <0>         0.3281
      5 N1          3.5868   -0.6543   -0.0369 N.pl3     1 <0>        -0.5848
      6 C5          3.1432   -2.0528   -0.0408 C.3       1 <0>         0.0607
      7 C6          1.6315   -2.0084   -0.0255 C.2       1 <0>         0.0692
      8 C7          1.2951   -0.6984   -0.0144 C.ar      1 <0>        -0.1660
      9 C8          0.0021   -0.0041    0.0020 C.ar      1 <0>        -0.0133
     10 C9          0.6905   -3.1856   -0.0239 C.3       1 <0>        -0.1056
     11 C10         0.4565   -3.6534   -1.4617 C.3       1 <0>         0.1261
     12 N2         -0.4583   -4.7977   -1.4602 N.am      1 <0>        -0.7317
     13 C11        -0.8107   -5.3803   -2.6233 C.2       1 <0>         0.5171
     14 O1         -0.3706   -4.9572   -3.6712 O.2       1 <0>        -0.5254
     15 C12        -1.7517   -6.5574   -2.6217 C.3       1 <0>         0.1029
     16 N3         -1.9758   -7.0053   -3.9984 N.am      1 <0>        -0.7239
     17 C13        -2.7888   -8.0522   -4.2425 C.2       1 <0>         0.5044
     18 O2         -3.3348   -8.6234   -3.3225 O.2       1 <0>        -0.5172
     19 C14        -3.0193   -8.5130   -5.6587 C.3       1 <0>         0.1187
     20 N4         -3.9340   -9.6573   -5.6571 N.am      1 <0>        -0.4620
     21 C15        -5.2655   -9.4365   -5.7515 C.2       1 <0>         0.5669
     22 O3         -5.7077   -8.3182   -5.9324 O.2       1 <0>        -0.5177
     23 C16        -6.1617  -10.6027   -5.6274 C.ar      1 <0>        -0.2091
     24 C17        -7.5126  -10.5550   -5.9442 C.ar      1 <0>        -0.0171
     25 C18        -8.2817  -11.6926   -5.7961 C.ar      1 <0>        -0.1652
     26 C19        -7.7147  -12.8710   -5.3363 C.ar      1 <0>        -0.0478
     27 C20        -6.3702  -12.9308   -5.0190 C.ar      1 <0>        -0.1728
     28 C21        -5.5865  -11.8020   -5.1630 C.ar      1 <0>         0.2023
     29 N5         -4.2273  -11.7809   -4.8742 N.pl3     1 <0>        -0.5830
     30 N6         -3.4221  -10.9148   -5.5663 N.3       1 <0>        -0.2037
     31 H1         -0.9665    1.8612    0.0259 H         1 <0>         0.1585
     32 H2          1.0933    3.1789    0.0083 H         1 <0>         0.1616
     33 H3          3.2717    2.1606   -0.0175 H         1 <0>         0.1611
     34 H4          3.4952   -2.5561   -0.9413 H         1 <0>         0.1747
     35 H5          3.5129   -2.5667    0.8465 H         1 <0>         0.1751
     36 H6         -0.9210   -0.5647    0.0081 H         1 <0>         0.1609
     37 H7          1.1268   -3.9987    0.5563 H         1 <0>         0.1202
     38 H8         -0.2596   -2.8905    0.4214 H         1 <0>         0.1173
     39 H9          0.0203   -2.8403   -2.0419 H         1 <0>         0.0810
     40 H10         1.4067   -3.9484   -1.9070 H         1 <0>         0.0802
     41 H11        -0.8103   -5.1361   -0.6220 H         1 <0>         0.4105
     42 H12        -1.3155   -7.3705   -2.0415 H         1 <0>         0.1033
     43 H13        -2.7019   -6.2623   -2.1764 H         1 <0>         0.1024
     44 H14        -1.5391   -6.5485   -4.7342 H         1 <0>         0.4130
     45 H15        -3.4555   -7.6999   -6.2389 H         1 <0>         0.1268
     46 H16        -2.0691   -8.8080   -6.1040 H         1 <0>         0.1216
     47 H17        -7.9572   -9.6384   -6.3028 H         1 <0>         0.1375
     48 H18        -9.3334  -11.6637   -6.0401 H         1 <0>         0.1331
     49 H19        -8.3298  -13.7516   -5.2243 H         1 <0>         0.1338
     50 H20        -5.9360  -13.8528   -4.6613 H         1 <0>         0.1355
     51 H21        -3.8566  -12.3695   -4.1981 H         1 <0>         0.4396
     52 H22        -3.1933  -11.2789   -6.4792 H         1 <0>         0.3500
     53 H23         4.5087   -0.3528   -0.0446 H         1 <0>         0.4564
@<TRIPOS>BOND
     1    1    9 ar
     2    1    2 ar
     3    1   31 1
     4    2    3 ar
     5    2   32 1
     6    3    4 ar
     7    3   33 1
     8    4    8 ar
     9    4    5 2
    10    5    6 1
    11    5   53 1
    12    6    7 1
    13    6   34 1
    14    6   35 1
    15    7    8 2
    16    7   10 1
    17    8    9 ar
    18    9   36 1
    19   10   11 1
    20   10   37 1
    21   10   38 1
    22   11   12 1
    23   11   39 1
    24   11   40 1
    25   12   13 am
    26   12   41 1
    27   13   14 2
    28   13   15 1
    29   15   16 1
    30   15   42 1
    31   15   43 1
    32   16   17 am
    33   16   44 1
    34   17   18 2
    35   17   19 1
    36   19   20 1
    37   19   45 1
    38   19   46 1
    39   20   30 1
    40   20   21 am
    41   21   22 2
    42   21   23 1
    43   23   28 ar
    44   23   24 ar
    45   24   25 ar
    46   24   47 1
    47   25   26 ar
    48   25   48 1
    49   26   27 ar
    50   26   49 1
    51   27   28 ar
    52   27   50 1
    53   28   29 1
    54   29   30 1
    55   29   51 1
    56   30   52 1
@<TRIPOS>MOLECULE
ZINC20877178
   59    62     0     0     0
SMALL
USER_CHARGES
(1R)-2-[2-bromo-4-[[(4-fluorophenyl)methylamino]methyl]-6-methoxy-phenoxy]-1-(2,3-dihydro-1,4-benzodioxin-6-yl)ethanol
@<TRIPOS>ATOM
      1 C1         -8.3670    0.7455   -2.8933 C.3       1 <0>         0.0165
      2 O1         -7.3392   -0.0865   -2.3516 O.3       1 <0>        -0.2859
      3 C2         -6.9466   -1.1505   -3.1020 C.ar      1 <0>         0.1289
      4 C3         -7.5348   -1.3857   -4.3347 C.ar      1 <0>        -0.1681
      5 C4         -7.1389   -2.4708   -5.0940 C.ar      1 <0>        -0.1240
      6 C5         -6.1525   -3.3208   -4.6293 C.ar      1 <0>        -0.0929
      7 C6         -5.5578   -3.0893   -3.4022 C.ar      1 <0>        -0.0831
      8 C7         -5.9506   -2.0026   -2.6359 C.ar      1 <0>         0.1290
      9 O2         -5.3674   -1.7735   -1.4287 O.3       1 <0>        -0.3042
     10 C8         -4.2028   -0.9455   -1.4176 C.3       1 <0>         0.0820
     11 C9         -3.6920   -0.8031    0.0176 C.3       1 <0>         0.1721
     12 H1         -3.5561   -1.7823    0.5000 H         1 <0>         0.0753
     13 C10        -2.3965   -0.0332    0.0157 C.ar      1 <0>        -0.1317
     14 C11        -2.4153    1.3492    0.0250 C.ar      1 <0>        -0.0906
     15 C12        -1.2294    2.0588    0.0190 C.ar      1 <0>        -0.1150
     16 C13        -0.0168    1.3855    0.0097 C.ar      1 <0>         0.0613
     17 C14         0.0021   -0.0041    0.0020 C.ar      1 <0>         0.0503
     18 C15        -1.1918   -0.7102    0.0041 C.ar      1 <0>        -0.0996
     19 O3          1.1807   -0.6848   -0.0066 O.3       1 <0>        -0.3067
     20 C16         2.3470    0.0535   -0.3870 C.3       1 <0>         0.0171
     21 C17         2.3345    1.3916    0.3645 C.3       1 <0>         0.0172
     22 O4          1.1429    2.0980    0.0024 O.3       1 <0>        -0.3044
     23 O5         -4.6609   -0.1032    0.8008 O.3       1 <0>        -0.5829
     24 Br1        -4.2090   -4.2542   -2.7700 Br        1 <0>         0.0012
     25 C18        -7.7835   -2.7276   -6.4317 C.3       1 <0>         0.0526
     26 N1         -8.9567   -3.5933   -6.2519 N.4       1 <0>        -0.5394
     27 C19        -9.6121   -3.8656   -7.5380 C.3       1 <0>         0.0506
     28 C20       -10.8083   -4.7545   -7.3139 C.ar      1 <0>        -0.1787
     29 C21       -10.6666   -6.1288   -7.3643 C.ar      1 <0>        -0.0609
     30 C22       -11.7619   -6.9450   -7.1542 C.ar      1 <0>        -0.1520
     31 C23       -13.0035   -6.3857   -6.9036 C.ar      1 <0>         0.1412
     32 C24       -13.1451   -5.0091   -6.8587 C.ar      1 <0>        -0.1525
     33 C25       -12.0474   -4.1949   -7.0638 C.ar      1 <0>        -0.0618
     34 F1        -14.0758   -7.1825   -6.7028 F         1 <0>        -0.1221
     35 H2         -8.5867    1.5620   -2.1897 H         1 <0>         0.1154
     36 H3         -9.2756    0.1471   -3.0558 H         1 <0>         0.0595
     37 H4         -8.0299    1.1678   -3.8514 H         1 <0>         0.0612
     38 H5         -8.3056   -0.7234   -4.7002 H         1 <0>         0.1472
     39 H6         -5.8459   -4.1675   -5.2255 H         1 <0>         0.1474
     40 H7         -3.4211   -1.4038   -2.0413 H         1 <0>         0.0745
     41 H8         -4.4552    0.0478   -1.8172 H         1 <0>         0.0703
     42 H9         -3.3583    1.8754    0.0345 H         1 <0>         0.1394
     43 H10        -1.2469    3.1386    0.0268 H         1 <0>         0.1387
     44 H11        -1.1798   -1.7901   -0.0029 H         1 <0>         0.1360
     45 H12         3.2470   -0.5205   -0.1216 H         1 <0>         0.1277
     46 H13         2.3315    0.2298   -1.4727 H         1 <0>         0.0798
     47 H14         2.3475    1.2036    1.4482 H         1 <0>         0.0823
     48 H15         3.2215    1.9783    0.0835 H         1 <0>         0.1283
     49 H16        -4.4681    0.0953    1.8654 H         1 <0>         0.4158
     50 H17        -8.0977   -1.7720   -6.8768 H         1 <0>         0.1393
     51 H18        -7.0613   -3.2224   -7.0978 H         1 <0>         0.1414
     52 H19        -8.6425   -4.5489   -5.8069 H         1 <0>         0.4505
     53 H20        -9.9391   -2.9179   -7.9908 H         1 <0>         0.1373
     54 H21        -8.9028   -4.3683   -8.2119 H         1 <0>         0.1382
     55 H22        -9.6989   -6.5647   -7.5638 H         1 <0>         0.1426
     56 H23       -11.6502   -8.0186   -7.1895 H         1 <0>         0.1494
     57 H24       -14.1130   -4.5717   -6.6630 H         1 <0>         0.1490
     58 H25       -12.1576   -3.1212   -7.0285 H         1 <0>         0.1417
     59 H26        -9.6789   -3.0985   -5.5858 H         1 <0>         0.4487
@<TRIPOS>BOND
     1    1    2 1
     2    1   35 1
     3    1   36 1
     4    1   37 1
     5    2    3 1
     6    3    8 ar
     7    3    4 ar
     8    4    5 ar
     9    4   38 1
    10    5    6 ar
    11    5   25 1
    12    6    7 ar
    13    6   39 1
    14    7    8 ar
    15    7   24 1
    16    8    9 1
    17    9   10 1
    18   10   11 1
    19   10   40 1
    20   10   41 1
    21   11   12 1
    22   11   13 1
    23   11   23 1
    24   13   18 ar
    25   13   14 ar
    26   14   15 ar
    27   14   42 1
    28   15   16 ar
    29   15   43 1
    30   16   22 1
    31   16   17 ar
    32   17   18 ar
    33   17   19 1
    34   18   44 1
    35   19   20 1
    36   20   21 1
    37   20   45 1
    38   20   46 1
    39   21   22 1
    40   21   47 1
    41   21   48 1
    42   23   49 1
    43   25   26 1
    44   25   50 1
    45   25   51 1
    46   26   27 1
    47   26   52 1
    48   26   59 1
    49   27   28 1
    50   27   53 1
    51   27   54 1
    52   28   33 ar
    53   28   29 ar
    54   29   30 ar
    55   29   55 1
    56   30   31 ar
    57   30   56 1
    58   31   32 ar
    59   31   34 1
    60   32   33 ar
    61   32   57 1
    62   33   58 1
@<TRIPOS>MOLECULE
ZINC39638636
   66    69     0     0     0
SMALL
USER_CHARGES

@<TRIPOS>ATOM
      1 C1          2.9875    4.8822   -6.6273 C.3       1 <0>        -0.1473
      2 C2          2.0452    4.8921   -5.4219 C.3       1 <0>         0.0480
      3 O1          2.0748    3.6139   -4.7836 O.3       1 <0>        -0.3164
      4 C3          1.2878    3.4533   -3.6874 C.ar      1 <0>         0.1411
      5 C4          0.4986    4.5027   -3.2387 C.ar      1 <0>        -0.2094
      6 C5         -0.3008    4.3368   -2.1246 C.ar      1 <0>        -0.0664
      7 C6         -0.3151    3.1261   -1.4565 C.ar      1 <0>        -0.1514
      8 C7          0.4706    2.0792   -1.9012 C.ar      1 <0>        -0.0604
      9 C8          1.2677    2.2383   -3.0185 C.ar      1 <0>        -0.1471
     10 C9          2.1191    1.0947   -3.5065 C.3       1 <0>         0.1726
     11 N1          3.4979    1.2822   -3.0482 N.am      1 <0>        -0.7214
     12 C10         4.4433    0.3761   -3.3674 C.2       1 <0>         0.5126
     13 O2          4.1525   -0.5945   -4.0340 O.2       1 <0>        -0.5111
     14 C11         5.8616    0.5690   -2.8960 C.3       1 <0>        -0.1141
     15 H1          5.8736    1.0521   -1.9189 H         1 <0>         0.1175
     16 C12         6.5972   -0.7884   -2.8340 C.3       1 <0>         0.1204
     17 N2          7.3061   -0.8895   -4.1315 N.am      1 <0>        -0.6139
     18 C13         7.7997    0.4844   -4.3900 C.3       1 <0>         0.0913
     19 C14         6.6560    1.4027   -3.9153 C.3       1 <0>        -0.0730
     20 C15         7.2237    2.6519   -3.2485 C.3       1 <0>        -0.1349
     21 C16         7.9595    3.4939   -4.2947 C.3       1 <0>        -0.0100
     22 N3          7.0296    3.8671   -5.3674 N.4       1 <0>        -0.5057
     23 C17         6.5601    2.6634   -6.0642 C.3       1 <0>        -0.0099
     24 C18         5.7651    1.7864   -5.0929 C.3       1 <0>        -0.1492
     25 C19         7.4663   -1.9835   -4.9022 C.2       1 <0>         0.5833
     26 O3          6.8935   -3.0171   -4.6170 O.2       1 <0>        -0.5028
     27 C20         8.3383   -1.9265   -6.0941 C.ar      1 <0>        -0.1122
     28 C21         9.3173   -0.9366   -6.1997 C.ar      1 <0>        -0.1127
     29 C22        10.1278   -0.8885   -7.3142 C.ar      1 <0>        -0.0952
     30 C23         9.9720   -1.8194   -8.3278 C.ar      1 <0>        -0.0734
     31 C24         9.0031   -2.8034   -8.2289 C.ar      1 <0>        -0.0519
     32 C25         8.1904   -2.8656   -7.1162 C.ar      1 <0>        -0.0537
     33 C26         8.8403   -3.8125   -9.3364 C.3       1 <0>        -0.1336
     34 Br1        11.0869   -1.7457   -9.8534 Br        1 <0>        -0.0280
     35 H2          4.0023    4.6663   -6.2933 H         1 <0>         0.0463
     36 H3          2.6665    4.1161   -7.3331 H         1 <0>         0.0717
     37 H4          2.9648    5.8571   -7.1142 H         1 <0>         0.0840
     38 H5          2.3662    5.6582   -4.7161 H         1 <0>         0.0633
     39 H6          1.0303    5.1080   -5.7558 H         1 <0>         0.0686
     40 H7          0.5097    5.4485   -3.7599 H         1 <0>         0.1297
     41 H8         -0.9149    5.1534   -1.7748 H         1 <0>         0.1303
     42 H9         -0.9408    2.9984   -0.5855 H         1 <0>         0.1309
     43 H10         0.4579    1.1348   -1.3775 H         1 <0>         0.1338
     44 H11         1.7292    0.1568   -3.1110 H         1 <0>         0.0789
     45 H12         2.0991    1.0658   -4.5960 H         1 <0>         0.0801
     46 H13         3.7305    2.0584   -2.5151 H         1 <0>         0.3976
     47 H14         7.3103   -0.7969   -2.0097 H         1 <0>         0.0889
     48 H15         5.8818   -1.6038   -2.7273 H         1 <0>         0.1044
     49 H16         8.7051    0.6778   -3.8149 H         1 <0>         0.0899
     50 H17         7.9861    0.6277   -5.4543 H         1 <0>         0.0932
     51 H18         6.4104    3.2360   -2.8179 H         1 <0>         0.0981
     52 H19         7.9192    2.3602   -2.4616 H         1 <0>         0.1231
     53 H20         8.3520    4.3955   -3.8245 H         1 <0>         0.1407
     54 H21         8.7829    2.9150   -4.7130 H         1 <0>         0.1328
     55 H22         6.2399    4.3546   -4.9717 H         1 <0>         0.4272
     56 H23         5.9211    2.9528   -6.8985 H         1 <0>         0.1383
     57 H24         7.4168    2.1042   -6.4404 H         1 <0>         0.1324
     58 H25         5.4321    0.8843   -5.6063 H         1 <0>         0.1220
     59 H26         4.8990    2.3392   -4.7290 H         1 <0>         0.1041
     60 H27         9.4392   -0.2097   -5.4103 H         1 <0>         0.1393
     61 H28        10.8854   -0.1233   -7.3970 H         1 <0>         0.1397
     62 H29         7.4379   -3.6364   -7.0381 H         1 <0>         0.1468
     63 H30         9.4771   -4.6747   -9.1388 H         1 <0>         0.0869
     64 H31         7.7996   -4.1330   -9.3857 H         1 <0>         0.0794
     65 H32         9.1263   -3.3594  -10.2856 H         1 <0>         0.0821
     66 H33         7.5005    4.4719   -6.0236 H         1 <0>         0.4336
@<TRIPOS>BOND
     1    1    2 1
     2    1   35 1
     3    1   36 1
     4    1   37 1
     5    2    3 1
     6    2   38 1
     7    2   39 1
     8    3    4 1
     9    4    9 ar
    10    4    5 ar
    11    5    6 ar
    12    5   40 1
    13    6    7 ar
    14    6   41 1
    15    7    8 ar
    16    7   42 1
    17    8    9 ar
    18    8   43 1
    19    9   10 1
    20   10   11 1
    21   10   44 1
    22   10   45 1
    23   11   12 am
    24   11   46 1
    25   12   13 2
    26   12   14 1
    27   14   15 1
    28   14   19 1
    29   14   16 1
    30   16   17 1
    31   16   47 1
    32   16   48 1
    33   17   18 1
    34   17   25 am
    35   18   19 1
    36   18   49 1
    37   18   50 1
    38   19   24 1
    39   19   20 1
    40   20   21 1
    41   20   51 1
    42   20   52 1
    43   21   22 1
    44   21   53 1
    45   21   54 1
    46   22   23 1
    47   22   55 1
    48   22   66 1
    49   23   24 1
    50   23   56 1
    51   23   57 1
    52   24   58 1
    53   24   59 1
    54   25   26 2
    55   25   27 1
    56   27   32 ar
    57   27   28 ar
    58   28   29 ar
    59   28   60 1
    60   29   30 ar
    61   29   61 1
    62   30   31 ar
    63   30   34 1
    64   31   32 ar
    65   31   33 1
    66   32   62 1
    67   33   63 1
    68   33   64 1
    69   33   65 1
@<TRIPOS>MOLECULE
ZINC39668971
   67    71     0     0     0
SMALL
USER_CHARGES

@<TRIPOS>ATOM
      1 C1          3.6484    5.4011    0.6149 C.ar      1 <0>        -0.1060
      2 C2          4.0786    4.9231   -0.6090 C.ar      1 <0>        -0.1190
      3 C3          5.1360    4.0376   -0.6687 C.ar      1 <0>        -0.1104
      4 C4          5.7680    3.6233    0.4937 C.ar      1 <0>        -0.1262
      5 C5          5.3359    4.0973    1.7145 C.ar      1 <0>        -0.0658
      6 C6          4.2766    4.9891    1.7733 C.ar      1 <0>        -0.1156
      7 C7          5.9887    3.6603    3.0010 C.3       1 <0>        -0.1204
      8 C8          7.3533    3.0367    2.7031 C.3       1 <0>         0.0621
      9 O1          7.1930    2.0710    1.6578 O.3       1 <0>        -0.3706
     10 C9          6.9217    2.6603    0.3866 C.3       1 <0>         0.1281
     11 H1          7.8065    3.1942    0.0399 H         1 <0>         0.0724
     12 C10         6.5718    1.5603   -0.6176 C.3       1 <0>         0.1283
     13 N1          7.6919    0.6220   -0.7240 N.am      1 <0>        -0.7240
     14 C11         7.6086   -0.4354   -1.5555 C.2       1 <0>         0.5126
     15 O2          6.6063   -0.6102   -2.2157 O.2       1 <0>        -0.5107
     16 C12         8.7608   -1.4005   -1.6650 C.3       1 <0>        -0.1138
     17 H2          9.2607   -1.5043   -0.7020 H         1 <0>         0.1213
     18 C13         8.2648   -2.7759   -2.1647 C.3       1 <0>         0.1206
     19 N2          8.4794   -2.7413   -3.6306 N.am      1 <0>        -0.6125
     20 C14         9.7781   -2.0457   -3.7968 C.3       1 <0>         0.0880
     21 C15         9.7565   -0.9264   -2.7369 C.3       1 <0>        -0.0736
     22 C16        11.1439   -0.7488   -2.1278 C.3       1 <0>        -0.1352
     23 C17        12.1029   -0.2211   -3.1986 C.3       1 <0>        -0.0106
     24 N3         11.6057    1.0598   -3.7152 N.4       1 <0>        -0.5052
     25 C18        10.3128    0.8628   -4.3818 C.3       1 <0>        -0.0097
     26 C19         9.2781    0.3810   -3.3610 C.3       1 <0>        -0.1499
     27 C20         7.6757   -3.2317   -4.5949 C.2       1 <0>         0.5817
     28 O3          6.5774   -3.6664   -4.3079 O.2       1 <0>        -0.4925
     29 C21         8.1298   -3.2411   -6.0019 C.ar      1 <0>        -0.0680
     30 C22         9.4917   -3.1664   -6.2992 C.ar      1 <0>        -0.1252
     31 C23         9.9103   -3.1760   -7.6135 C.ar      1 <0>        -0.0495
     32 C24         8.9840   -3.2593   -8.6377 C.ar      1 <0>        -0.1982
     33 C25         7.6306   -3.3332   -8.3509 C.ar      1 <0>         0.1593
     34 C26         7.1993   -3.3303   -7.0377 C.ar      1 <0>        -0.0963
     35 F1          6.7314   -3.4135   -9.3560 F         1 <0>        -0.1096
     36 C27         9.4490   -3.2692  -10.0711 C.3       1 <0>         0.5108
     37 F2         10.8450   -3.1856  -10.1091 F         1 <0>        -0.1711
     38 F3          9.0359   -4.4554  -10.6872 F         1 <0>        -0.1648
     39 F4          8.8978   -2.1758  -10.7477 F         1 <0>        -0.1678
     40 H3          2.8255    6.0988    0.6644 H         1 <0>         0.1283
     41 H4          3.5880    5.2416   -1.5169 H         1 <0>         0.1272
     42 H5          5.4723    3.6656   -1.6252 H         1 <0>         0.1222
     43 H6          3.9410    5.3631    2.7293 H         1 <0>         0.1275
     44 H7          6.1195    4.5242    3.6527 H         1 <0>         0.0901
     45 H8          5.3551    2.9255    3.4977 H         1 <0>         0.0901
     46 H9          8.0482    3.8125    2.3815 H         1 <0>         0.0573
     47 H10         7.7356    2.5470    3.5987 H         1 <0>         0.1059
     48 H11         5.6830    1.0281   -0.2786 H         1 <0>         0.0834
     49 H12         6.3780    2.0068   -1.5929 H         1 <0>         0.0868
     50 H13         8.4935    0.7618   -0.1960 H         1 <0>         0.4024
     51 H14         8.8498   -3.5776   -1.7139 H         1 <0>         0.0925
     52 H15         7.2062   -2.9033   -1.9385 H         1 <0>         0.1062
     53 H16        10.6039   -2.7315   -3.6076 H         1 <0>         0.0943
     54 H17         9.8568   -1.6209   -4.7975 H         1 <0>         0.0934
     55 H18        11.0912   -0.0371   -1.3039 H         1 <0>         0.0998
     56 H19        11.5044   -1.7086   -1.7577 H         1 <0>         0.1242
     57 H20        13.0912   -0.0774   -2.7619 H         1 <0>         0.1417
     58 H21        12.1678   -0.9410   -4.0145 H         1 <0>         0.1324
     59 H22        11.4930    1.7084   -2.9505 H         1 <0>         0.4289
     60 H23         9.9815    1.8055   -4.8173 H         1 <0>         0.1398
     61 H24        10.4203    0.1171   -5.1695 H         1 <0>         0.1322
     62 H25         8.3230    0.2178   -3.8603 H         1 <0>         0.1226
     63 H26         9.1580    1.1337   -2.5817 H         1 <0>         0.0994
     64 H27        10.2166   -3.1010   -5.5012 H         1 <0>         0.1513
     65 H28        10.9639   -3.1179   -7.8436 H         1 <0>         0.1576
     66 H29         6.1445   -3.3925   -6.8141 H         1 <0>         0.1650
     67 H30        12.2696    1.4350   -4.3759 H         1 <0>         0.4349
@<TRIPOS>BOND
     1    1    6 ar
     2    1    2 ar
     3    1   40 1
     4    2    3 ar
     5    2   41 1
     6    3    4 ar
     7    3   42 1
     8    4   10 1
     9    4    5 ar
    10    5    6 ar
    11    5    7 1
    12    6   43 1
    13    7    8 1
    14    7   44 1
    15    7   45 1
    16    8    9 1
    17    8   46 1
    18    8   47 1
    19    9   10 1
    20   10   11 1
    21   10   12 1
    22   12   13 1
    23   12   48 1
    24   12   49 1
    25   13   14 am
    26   13   50 1
    27   14   15 2
    28   14   16 1
    29   16   17 1
    30   16   21 1
    31   16   18 1
    32   18   19 1
    33   18   51 1
    34   18   52 1
    35   19   20 1
    36   19   27 am
    37   20   21 1
    38   20   53 1
    39   20   54 1
    40   21   26 1
    41   21   22 1
    42   22   23 1
    43   22   55 1
    44   22   56 1
    45   23   24 1
    46   23   57 1
    47   23   58 1
    48   24   25 1
    49   24   59 1
    50   24   67 1
    51   25   26 1
    52   25   60 1
    53   25   61 1
    54   26   62 1
    55   26   63 1
    56   27   28 2
    57   27   29 1
    58   29   34 ar
    59   29   30 ar
    60   30   31 ar
    61   30   64 1
    62   31   32 ar
    63   31   65 1
    64   32   33 ar
    65   32   36 1
    66   33   34 ar
    67   33   35 1
    68   34   66 1
    69   36   37 1
    70   36   38 1
    71   36   39 1
@<TRIPOS>MOLECULE
ZINC39687296
   80    84     0     0     0
SMALL
USER_CHARGES

@<TRIPOS>ATOM
      1 C1          6.3908    0.4299   -0.8934 C.ar      1 <0>        -0.1142
      2 C2          6.3995    0.5252    0.4856 C.ar      1 <0>        -0.1116
      3 C3          5.6887   -0.3846    1.2458 C.ar      1 <0>        -0.1100
      4 C4          4.9690   -1.3895    0.6269 C.ar      1 <0>        -0.0689
      5 C5          4.9596   -1.4843   -0.7522 C.ar      1 <0>        -0.1054
      6 C6          5.6715   -0.5753   -1.5123 C.ar      1 <0>        -0.1095
      7 C7          4.1949   -2.3820    1.4557 C.3       1 <0>        -0.0906
      8 C8          2.7760   -1.8579    1.6854 C.3       1 <0>         0.1360
      9 H1          2.3067   -1.6466    0.7246 H         1 <0>         0.1137
     10 C9          1.9695   -2.8973    2.4205 C.2       1 <0>         0.5127
     11 O1          1.8690   -2.8445    3.6280 O.2       1 <0>        -0.5360
     12 N1          1.3599   -3.8854    1.7362 N.am      1 <0>        -0.6017
     13 C10         1.5597   -4.0263    0.2874 C.3       1 <0>         0.0982
     14 C11         2.0200   -5.4569   -0.0100 C.3       1 <0>        -0.1383
     15 C12         1.0150   -6.4459    0.5850 C.3       1 <0>        -0.1228
     16 C13         0.9551   -6.2636    2.1033 C.3       1 <0>        -0.1380
     17 C14         0.4876   -4.8459    2.4257 C.3       1 <0>         0.1103
     18 N2          2.8320   -0.6298    2.4821 N.am      1 <0>        -0.7177
     19 C15         3.0337    0.5574    1.8770 C.2       1 <0>         0.5227
     20 O2          3.2430    0.6018    0.6832 O.2       1 <0>        -0.4951
     21 C16         2.9993    1.8299    2.6837 C.3       1 <0>        -0.1073
     22 H2          3.3980    2.6594    2.0997 H         1 <0>         0.1256
     23 C17         3.8021    1.6587    3.9928 C.3       1 <0>         0.1057
     24 N3          3.0296    2.4141    5.0070 N.am      1 <0>        -0.6235
     25 C18         1.6122    2.1280    4.6793 C.3       1 <0>         0.0989
     26 C19         1.5626    2.1368    3.1385 C.3       1 <0>        -0.0750
     27 C20         0.6074    1.0587    2.6358 C.3       1 <0>        -0.1514
     28 C21        -0.8226    1.4162    3.0505 C.3       1 <0>        -0.0071
     29 N4         -1.1858    2.7218    2.4863 N.4       1 <0>        -0.5050
     30 C22        -0.3213    3.7674    3.0468 C.3       1 <0>        -0.0107
     31 C23         1.1299    3.5093    2.6319 C.3       1 <0>        -0.1343
     32 C24         3.5075    3.1871    6.0023 C.2       1 <0>         0.5402
     33 O3          4.6973    3.4088    6.0800 O.2       1 <0>        -0.5118
     34 C25         2.5634    3.7758    7.0188 C.3       1 <0>        -0.0983
     35 H3          1.7301    4.2586    6.5083 H         1 <0>         0.0915
     36 C26         3.3079    4.8054    7.8783 C.3       1 <0>        -0.1037
     37 C27         2.2904    5.5123    8.7765 C.3       1 <0>        -0.0953
     38 C28         1.4274    4.5023    9.4744 C.2       1 <0>        -0.1452
     39 C29         1.3146    3.2665    9.1060 C.2       1 <0>        -0.1654
     40 C30         2.0348    2.6678    7.9322 C.3       1 <0>        -0.0769
     41 H4          6.9425    1.1435   -1.4875 H         1 <0>         0.1184
     42 H5          6.9618    1.3103    0.9691 H         1 <0>         0.1164
     43 H6          5.6961   -0.3106    2.3232 H         1 <0>         0.1085
     44 H7          4.3975   -2.2696   -1.2357 H         1 <0>         0.1147
     45 H8          5.6644   -0.6495   -2.5897 H         1 <0>         0.1193
     46 H9          4.1493   -3.3363    0.9309 H         1 <0>         0.0882
     47 H10         4.6916   -2.5190    2.4162 H         1 <0>         0.0846
     48 H11         0.6218   -3.8288   -0.2318 H         1 <0>         0.0760
     49 H12         2.3204   -3.3208   -0.0469 H         1 <0>         0.0874
     50 H13         2.0794   -5.6031   -1.0886 H         1 <0>         0.0823
     51 H14         3.0011   -5.6233    0.4347 H         1 <0>         0.0705
     52 H15         0.0290   -6.2627    0.1580 H         1 <0>         0.0664
     53 H16         1.3272   -7.4643    0.3535 H         1 <0>         0.0718
     54 H17         0.2566   -6.9841    2.5289 H         1 <0>         0.0806
     55 H18         1.9463   -6.4224    2.5281 H         1 <0>         0.0689
     56 H19         0.5412   -4.6809    3.5018 H         1 <0>         0.0946
     57 H20        -0.5396   -4.7167    2.0848 H         1 <0>         0.0709
     58 H21         2.7239   -0.6711    3.4452 H         1 <0>         0.4083
     59 H22         3.8615    0.6055    4.2672 H         1 <0>         0.0801
     60 H23         4.8010    2.0809    3.8840 H         1 <0>         0.1014
     61 H24         1.3226    1.1504    5.0646 H         1 <0>         0.0875
     62 H25         0.9638    2.9049    5.0843 H         1 <0>         0.0878
     63 H26         0.6667    0.9979    1.5491 H         1 <0>         0.0997
     64 H27         0.8826    0.0975    3.0700 H         1 <0>         0.1246
     65 H28        -1.5094    0.6561    2.6783 H         1 <0>         0.1381
     66 H29        -0.8850    1.4605    4.1378 H         1 <0>         0.1331
     67 H30        -1.0740    2.6964    1.4839 H         1 <0>         0.4296
     68 H31        -0.6386    4.7404    2.6719 H         1 <0>         0.1402
     69 H32        -0.3956    3.7557    4.1342 H         1 <0>         0.1316
     70 H33         1.7735    4.2759    3.0633 H         1 <0>         0.1181
     71 H34         1.2081    3.5372    1.5450 H         1 <0>         0.1007
     72 H35         4.0512    4.2995    8.4944 H         1 <0>         0.0772
     73 H36         3.7972    5.5356    7.2337 H         1 <0>         0.0753
     74 H37         2.8183    6.1110    9.5188 H         1 <0>         0.0823
     75 H38         1.6636    6.1647    8.1685 H         1 <0>         0.0752
     76 H39         0.8657    4.8266   10.3380 H         1 <0>         0.1087
     77 H40         0.6584    2.6259    9.6765 H         1 <0>         0.1095
     78 H41         1.3508    2.0318    7.3702 H         1 <0>         0.0719
     79 H42         2.8700    2.0671    8.2923 H         1 <0>         0.0811
     80 H43        -2.1481    2.9273    2.7097 H         1 <0>         0.4338
@<TRIPOS>BOND
     1    1    6 ar
     2    1    2 ar
     3    1   41 1
     4    2    3 ar
     5    2   42 1
     6    3    4 ar
     7    3   43 1
     8    4    5 ar
     9    4    7 1
    10    5    6 ar
    11    5   44 1
    12    6   45 1
    13    7    8 1
    14    7   46 1
    15    7   47 1
    16    8    9 1
    17    8   10 1
    18    8   18 1
    19   10   11 2
    20   10   12 am
    21   12   17 1
    22   12   13 1
    23   13   14 1
    24   13   48 1
    25   13   49 1
    26   14   15 1
    27   14   50 1
    28   14   51 1
    29   15   16 1
    30   15   52 1
    31   15   53 1
    32   16   17 1
    33   16   54 1
    34   16   55 1
    35   17   56 1
    36   17   57 1
    37   18   19 am
    38   18   58 1
    39   19   20 2
    40   19   21 1
    41   21   22 1
    42   21   26 1
    43   21   23 1
    44   23   24 1
    45   23   59 1
    46   23   60 1
    47   24   25 1
    48   24   32 am
    49   25   26 1
    50   25   61 1
    51   25   62 1
    52   26   31 1
    53   26   27 1
    54   27   28 1
    55   27   63 1
    56   27   64 1
    57   28   29 1
    58   28   65 1
    59   28   66 1
    60   29   30 1
    61   29   67 1
    62   29   80 1
    63   30   31 1
    64   30   68 1
    65   30   69 1
    66   31   70 1
    67   31   71 1
    68   32   33 2
    69   32   34 1
    70   34   35 1
    71   34   40 1
    72   34   36 1
    73   36   37 1
    74   36   72 1
    75   36   73 1
    76   37   38 1
    77   37   74 1
    78   37   75 1
    79   38   39 2
    80   38   76 1
    81   39   40 1
    82   39   77 1
    83   40   78 1
    84   40   79 1
@<TRIPOS>MOLECULE
ZINC39696367
   69    71     0     0     0
SMALL
USER_CHARGES

@<TRIPOS>ATOM
      1 C1          0.5349    1.6947   -7.5512 C.3       1 <0>        -0.1436
      2 C2         -0.1438    1.5486   -6.1877 C.3       1 <0>        -0.0317
      3 C3         -0.1479    2.9011   -5.4725 C.3       1 <0>        -0.1458
      4 C4         -1.5840    1.0708   -6.3835 C.3       1 <0>        -0.1328
      5 S1          0.7640    0.3382   -5.1870 S.3       1 <0>        -0.2257
      6 C5          2.4296    1.0435   -5.0493 C.3       1 <0>        -0.1097
      7 C6          3.3116    0.1100   -4.2178 C.3       1 <0>         0.1353
      8 N1          4.6568    0.6797   -4.1066 N.am      1 <0>        -0.7286
      9 C7          5.6103    0.0259   -3.4140 C.2       1 <0>         0.5123
     10 O1          5.3548   -1.0340   -2.8827 O.2       1 <0>        -0.5050
     11 C8          6.9940    0.6118   -3.2996 C.3       1 <0>        -0.1140
     12 H1          6.9490    1.7002   -3.3404 H         1 <0>         0.1190
     13 C9          7.6670    0.1501   -1.9876 C.3       1 <0>         0.1129
     14 N2          8.4706   -1.0331   -2.3754 N.am      1 <0>        -0.6154
     15 C10         9.0381   -0.6760   -3.6978 C.3       1 <0>         0.1086
     16 C11         7.8988    0.0709   -4.4194 C.3       1 <0>        -0.0729
     17 C12         8.4627    1.2227   -5.2459 C.3       1 <0>        -0.1330
     18 C13         9.3116    0.6576   -6.3882 C.3       1 <0>        -0.0102
     19 N3          8.4844   -0.2158   -7.2294 N.4       1 <0>        -0.5045
     20 C14         8.0226   -1.3707   -6.4498 C.3       1 <0>        -0.0088
     21 C15         7.1191   -0.8914   -5.3102 C.3       1 <0>        -0.1472
     22 C16         8.6463   -2.1756   -1.6824 C.2       1 <0>         0.5439
     23 O2          9.3403   -3.0602   -2.1372 O.2       1 <0>        -0.5168
     24 C17         7.9803   -2.3540   -0.3423 C.3       1 <0>         0.1254
     25 H2          6.9665   -1.9551   -0.3764 H         1 <0>         0.1122
     26 C18         8.7940   -1.6270    0.7490 C.3       1 <0>        -0.1210
     27 C19         8.6961   -2.5946    1.9579 C.3       1 <0>        -0.1276
     28 C20         8.7210   -3.9746    1.2546 C.3       1 <0>         0.0800
     29 N4          7.9448   -3.7803    0.0125 N.am      1 <0>        -0.5819
     30 C21         7.3102   -4.7465   -0.6804 C.2       1 <0>         0.5064
     31 O3          6.7012   -4.4674   -1.6914 O.2       1 <0>        -0.4662
     32 C22         7.3574   -6.1738   -0.1990 C.3       1 <0>         0.4574
     33 F1          6.6310   -6.9861   -1.0763 F         1 <0>        -0.1495
     34 F2          8.6868   -6.6073   -0.1546 F         1 <0>        -0.1624
     35 F3          6.7982   -6.2529    1.0809 F         1 <0>        -0.1645
     36 H3          1.5609    2.0350   -7.4117 H         1 <0>         0.0513
     37 H4          0.5378    0.7311   -8.0607 H         1 <0>         0.0689
     38 H5         -0.0106    2.4220   -8.1525 H         1 <0>         0.0697
     39 H6         -0.6934    3.6284   -6.0738 H         1 <0>         0.0697
     40 H7         -0.6314    2.7970   -4.5012 H         1 <0>         0.0711
     41 H8          0.8782    3.2415   -5.3331 H         1 <0>         0.0530
     42 H9         -1.5811    0.1072   -6.8930 H         1 <0>         0.0672
     43 H10        -2.0675    0.9667   -5.4122 H         1 <0>         0.0684
     44 H11        -2.1295    1.7981   -6.9848 H         1 <0>         0.0762
     45 H12         2.8590    1.1582   -6.0446 H         1 <0>         0.0840
     46 H13         2.3726    2.0177   -4.5637 H         1 <0>         0.0888
     47 H14         2.8822   -0.0047   -3.2225 H         1 <0>         0.0828
     48 H15         3.3686   -0.8642   -4.7034 H         1 <0>         0.0801
     49 H16         4.8611    1.5274   -4.5315 H         1 <0>         0.3988
     50 H17         8.3125    0.9356   -1.5947 H         1 <0>         0.0945
     51 H18         6.9131   -0.1275   -1.2510 H         1 <0>         0.0971
     52 H19         9.9029   -0.0236   -3.5770 H         1 <0>         0.0863
     53 H20         9.3129   -1.5752   -4.2492 H         1 <0>         0.0878
     54 H21         7.6425    1.8102   -5.6584 H         1 <0>         0.0972
     55 H22         9.0821    1.8567   -4.6115 H         1 <0>         0.1224
     56 H23         9.7022    1.4778   -6.9904 H         1 <0>         0.1403
     57 H24        10.1411    0.0839   -5.9747 H         1 <0>         0.1328
     58 H25         7.6864    0.3015   -7.5665 H         1 <0>         0.4271
     59 H26         7.4630   -2.0456   -7.0975 H         1 <0>         0.1390
     60 H27         8.8827   -1.8960   -6.0348 H         1 <0>         0.1341
     61 H28         6.7911   -1.7478   -4.7211 H         1 <0>         0.1250
     62 H29         6.2503   -0.3803   -5.7250 H         1 <0>         0.0948
     63 H30         9.8312   -1.5022    0.4379 H         1 <0>         0.0869
     64 H31         8.3435   -0.6638    0.9886 H         1 <0>         0.0996
     65 H32         9.5531   -2.4788    2.6214 H         1 <0>         0.1017
     66 H33         7.7618   -2.4492    2.5001 H         1 <0>         0.0895
     67 H34         9.7459   -4.2633    1.0216 H         1 <0>         0.0896
     68 H35         8.2469   -4.7290    1.8824 H         1 <0>         0.0951
     69 H36         9.0293   -0.5382   -8.0151 H         1 <0>         0.4344
@<TRIPOS>BOND
     1    1    2 1
     2    1   36 1
     3    1   37 1
     4    1   38 1
     5    2    3 1
     6    2    4 1
     7    2    5 1
     8    3   39 1
     9    3   40 1
    10    3   41 1
    11    4   42 1
    12    4   43 1
    13    4   44 1
    14    5    6 1
    15    6    7 1
    16    6   45 1
    17    6   46 1
    18    7    8 1
    19    7   47 1
    20    7   48 1
    21    8    9 am
    22    8   49 1
    23    9   10 2
    24    9   11 1
    25   11   12 1
    26   11   16 1
    27   11   13 1
    28   13   14 1
    29   13   50 1
    30   13   51 1
    31   14   15 1
    32   14   22 am
    33   15   16 1
    34   15   52 1
    35   15   53 1
    36   16   21 1
    37   16   17 1
    38   17   18 1
    39   17   54 1
    40   17   55 1
    41   18   19 1
    42   18   56 1
    43   18   57 1
    44   19   20 1
    45   19   58 1
    46   19   69 1
    47   20   21 1
    48   20   59 1
    49   20   60 1
    50   21   61 1
    51   21   62 1
    52   22   23 2
    53   22   24 1
    54   24   25 1
    55   24   29 1
    56   24   26 1
    57   26   27 1
    58   26   63 1
    59   26   64 1
    60   27   28 1
    61   27   65 1
    62   27   66 1
    63   28   29 1
    64   28   67 1
    65   28   68 1
    66   29   30 am
    67   30   31 2
    68   30   32 1
    69   32   33 1
    70   32   34 1
    71   32   35 1
@<TRIPOS>MOLECULE
ZINC08896579
   63    65     0     0     0
SMALL
USER_CHARGES
2-[(3-isopropoxybenzoyl)thiocarbamoylamino]-6-tert-butyl-4,5,6,7-tetrahydrobenzothiophene-3-carboxamide
@<TRIPOS>ATOM
      1 C1          6.5958    2.4274    1.2369 C.3       1 <0>        -0.1831
      2 C2          6.0296    2.1443   -0.1560 C.3       1 <0>         0.0758
      3 C3          7.0715    1.3929   -0.9870 C.3       1 <0>        -0.1510
      4 O1          4.8496    1.3470   -0.0375 O.3       1 <0>        -0.3044
      5 C4          3.6819    2.0033    0.1925 C.ar      1 <0>         0.1338
      6 C5          3.6882    3.3744    0.4122 C.ar      1 <0>        -0.1795
      7 C6          2.5036    4.0476    0.6463 C.ar      1 <0>        -0.0803
      8 C7          1.3061    3.3619    0.6589 C.ar      1 <0>        -0.1294
      9 C8          1.2901    1.9826    0.4439 C.ar      1 <0>        -0.0976
     10 C9          2.4868    1.3046    0.2073 C.ar      1 <0>        -0.0860
     11 C10         0.0101    1.2442    0.4607 C.2       1 <0>         0.5410
     12 O2         -0.0017    0.0443    0.2683 O.2       1 <0>        -0.3997
     13 N1         -1.1446    1.9022    0.6840 N.am      1 <0>        -0.6325
     14 C11        -2.3125    1.2296    0.6938 C.2       1 <0>         0.4775
     15 S1         -2.3292   -0.4607    0.4227 S.2       1 <0>        -0.3760
     16 N2         -3.4673    1.8877    0.9170 N.pl3     1 <0>        -0.5535
     17 C12        -4.6680    1.1963    0.9272 C.2       1 <0>         0.0143
     18 C13        -5.9467    1.6914    1.1425 C.2       1 <0>        -0.1875
     19 C14        -7.0494    0.7459    1.0965 C.2       1 <0>        -0.0830
     20 C15        -6.6985   -0.5355    0.8543 C.2       1 <0>        -0.2363
     21 S2         -4.9370   -0.4977    0.6817 S.3       1 <0>         0.3211
     22 C16        -7.6114   -1.7187    0.7554 C.3       1 <0>        -0.0361
     23 C17        -9.0508   -1.2073    0.5986 C.3       1 <0>        -0.0722
     24 H1         -9.1832   -0.7887   -0.3991 H         1 <0>         0.0742
     25 C18        -9.3070   -0.1245    1.6508 C.3       1 <0>        -0.1140
     26 C19        -8.5078    1.1338    1.3075 C.3       1 <0>        -0.0602
     27 C20       -10.0311   -2.3639    0.8037 C.3       1 <0>        -0.0631
     28 C21        -9.8479   -2.9450    2.2071 C.3       1 <0>        -0.1473
     29 C22       -11.4643   -1.8516    0.6469 C.3       1 <0>        -0.1448
     30 C23        -9.7616   -3.4517   -0.2379 C.3       1 <0>        -0.1454
     31 C24        -6.1767    3.1155    1.4028 C.2       1 <0>         0.5788
     32 O3         -6.3803    3.8784    0.4764 O.2       1 <0>        -0.5336
     33 N3         -6.1627    3.5801    2.6678 N.am      1 <0>        -0.8492
     34 H2          7.4958    3.0356    1.1466 H         1 <0>         0.0754
     35 H3          5.8535    2.9627    1.8290 H         1 <0>         0.0624
     36 H4          6.8414    1.4856    1.7276 H         1 <0>         0.0707
     37 H5          5.7839    3.0861   -0.6466 H         1 <0>         0.0751
     38 H6          6.6681    1.1913   -1.9794 H         1 <0>         0.0670
     39 H7          7.9715    2.0011   -1.0774 H         1 <0>         0.0798
     40 H8          7.3172    0.4511   -0.4964 H         1 <0>         0.0697
     41 H9          4.6219    3.9170    0.3998 H         1 <0>         0.1389
     42 H10         2.5150    5.1140    0.8165 H         1 <0>         0.1363
     43 H11         0.3820    3.8915    0.8380 H         1 <0>         0.1240
     44 H12         2.4806    0.2382    0.0365 H         1 <0>         0.1503
     45 H13        -1.1352    2.8600    0.8376 H         1 <0>         0.4152
     46 H14        -3.4579    2.8455    1.0706 H         1 <0>         0.4128
     47 H15        -7.3392   -2.3210   -0.1114 H         1 <0>         0.0793
     48 H16        -7.5315   -2.3207    1.6605 H         1 <0>         0.0856
     49 H17       -10.3700    0.1161    1.6714 H         1 <0>         0.0708
     50 H18        -8.9997   -0.4913    2.6301 H         1 <0>         0.0671
     51 H19        -8.9029    1.5801    0.3949 H         1 <0>         0.0734
     52 H20        -8.5809    1.8482    2.1275 H         1 <0>         0.0661
     53 H21       -10.0400   -2.1700    2.9491 H         1 <0>         0.0572
     54 H22       -10.5463   -3.7690    2.3532 H         1 <0>         0.0530
     55 H23        -8.8269   -3.3099    2.3188 H         1 <0>         0.0590
     56 H24       -11.5948   -1.4377   -0.3530 H         1 <0>         0.0543
     57 H25       -12.1627   -2.6756    0.7930 H         1 <0>         0.0540
     58 H26       -11.6563   -1.0767    1.3889 H         1 <0>         0.0581
     59 H27        -8.7406   -3.8167   -0.1262 H         1 <0>         0.0582
     60 H28       -10.4600   -4.2757   -0.0918 H         1 <0>         0.0540
     61 H29        -9.8921   -3.0378   -1.2378 H         1 <0>         0.0547
     62 H30        -6.0005    2.9722    3.4060 H         1 <0>         0.4041
     63 H31        -6.3149    4.5225    2.8401 H         1 <0>         0.4025
@<TRIPOS>BOND
     1    1    2 1
     2    1   34 1
     3    1   35 1
     4    1   36 1
     5    2    3 1
     6    2    4 1
     7    2   37 1
     8    3   38 1
     9    3   39 1
    10    3   40 1
    11    4    5 1
    12    5   10 ar
    13    5    6 ar
    14    6    7 ar
    15    6   41 1
    16    7    8 ar
    17    7   42 1
    18    8    9 ar
    19    8   43 1
    20    9   10 ar
    21    9   11 1
    22   10   44 1
    23   11   12 2
    24   11   13 am
    25   13   14 1
    26   13   45 1
    27   14   15 2
    28   14   16 1
    29   16   17 1
    30   16   46 1
    31   17   21 1
    32   17   18 2
    33   18   19 1
    34   18   31 1
    35   19   26 1
    36   19   20 2
    37   20   21 1
    38   20   22 1
    39   22   23 1
    40   22   47 1
    41   22   48 1
    42   23   24 1
    43   23   25 1
    44   23   27 1
    45   25   26 1
    46   25   49 1
    47   25   50 1
    48   26   51 1
    49   26   52 1
    50   27   28 1
    51   27   29 1
    52   27   30 1
    53   28   53 1
    54   28   54 1
    55   28   55 1
    56   29   56 1
    57   29   57 1
    58   29   58 1
    59   30   59 1
    60   30   60 1
    61   30   61 1
    62   31   32 2
    63   31   33 am
    64   33   62 1
    65   33   63 1
@<TRIPOS>MOLECULE
ZINC14274480
   48    50     0     0     0
SMALL
USER_CHARGES
2-[(5-bromo-2-methoxy-3-methyl-benzoyl)carbamothioylamino]-4,5,6,7-tetrahydrobenzothiophene-3-carboxamide
@<TRIPOS>ATOM
      1 C1         -2.5887    4.6631    0.0509 C.3       1 <0>        -0.1167
      2 C2         -1.2662    3.9408    0.0344 C.ar      1 <0>        -0.0999
      3 C3         -1.2347    2.5603    0.0218 C.ar      1 <0>        -0.0452
      4 C4         -0.0236    1.8867    0.0124 C.ar      1 <0>        -0.1013
      5 C5          1.1629    2.5895    0.0049 C.ar      1 <0>        -0.0544
      6 C6          1.1448    3.9864    0.0121 C.ar      1 <0>        -0.1540
      7 C7         -0.0829    4.6635    0.0270 C.ar      1 <0>         0.1818
      8 O1         -0.1128    6.0197    0.0345 O.3       1 <0>        -0.3166
      9 C8         -0.1388    6.6752   -1.2350 C.3       1 <0>         0.0471
     10 C9          2.4096    4.7444    0.0046 C.2       1 <0>         0.5393
     11 O2          2.3899    5.9599    0.0109 O.2       1 <0>        -0.3816
     12 N1          3.5876    4.0897   -0.0093 N.am      1 <0>        -0.6349
     13 C10         4.7436    4.7825   -0.0162 C.2       1 <0>         0.4780
     14 S1          4.7158    6.4942   -0.0073 S.2       1 <0>        -0.3745
     15 N2          5.9216    4.1277   -0.0301 N.pl3     1 <0>        -0.5536
     16 C11         7.1101    4.8400   -0.0371 C.2       1 <0>         0.0148
     17 C12         8.4089    4.3505   -0.0456 C.2       1 <0>        -0.1874
     18 C13         9.4916    5.3198   -0.0566 C.2       1 <0>        -0.0830
     19 C14         9.1052    6.6139   -0.0458 C.2       1 <0>        -0.2385
     20 S2          7.3358    6.5579   -0.0299 S.3       1 <0>         0.3224
     21 C15         9.9914    7.8212   -0.0464 C.3       1 <0>        -0.0383
     22 C16        11.4156    7.3760    0.3166 C.3       1 <0>        -0.1166
     23 C17        11.7812    6.1536   -0.5302 C.3       1 <0>        -0.1173
     24 C18        10.9676    4.9417   -0.0727 C.3       1 <0>        -0.0617
     25 C19         8.6784    2.9097   -0.0480 C.2       1 <0>         0.5786
     26 O3          8.7840    2.3121   -1.1031 O.2       1 <0>        -0.5337
     27 N3          8.8092    2.2467    1.1181 N.am      1 <0>        -0.8485
     28 Br1         0.0021   -0.0041    0.0020 Br        1 <0>        -0.0292
     29 H1         -2.9174    4.8428   -0.9727 H         1 <0>         0.0780
     30 H2         -3.3293    4.0534    0.5686 H         1 <0>         0.0771
     31 H3         -2.4761    5.6156    0.5688 H         1 <0>         0.0827
     32 H4         -2.1594    2.0022    0.0232 H         1 <0>         0.1479
     33 H5          2.1046    2.0608   -0.0063 H         1 <0>         0.1356
     34 H6         -1.0272    6.3657   -1.7856 H         1 <0>         0.0466
     35 H7         -0.1613    7.7547   -1.0862 H         1 <0>         0.1032
     36 H8          0.7523    6.4050   -1.8017 H         1 <0>         0.0510
     37 H9          3.6034    3.1198   -0.0144 H         1 <0>         0.4133
     38 H10         5.9373    3.1579   -0.0351 H         1 <0>         0.4130
     39 H11         9.9903    8.2770   -1.0365 H         1 <0>         0.0808
     40 H12         9.6322    8.5407    0.6894 H         1 <0>         0.0794
     41 H13        12.1152    8.1860    0.1103 H         1 <0>         0.0695
     42 H14        11.4588    7.1165    1.3744 H         1 <0>         0.0658
     43 H15        11.5641    6.3609   -1.5780 H         1 <0>         0.0659
     44 H16        12.8438    5.9388   -0.4162 H         1 <0>         0.0664
     45 H17        11.1252    4.1137   -0.7638 H         1 <0>         0.0699
     46 H18        11.2824    4.6470    0.9284 H         1 <0>         0.0717
     47 H19         8.7250    2.7230    1.9589 H         1 <0>         0.4042
     48 H20         8.9875    1.2932    1.1165 H         1 <0>         0.4029
@<TRIPOS>BOND
     1    1    2 1
     2    1   29 1
     3    1   30 1
     4    1   31 1
     5    2    7 ar
     6    2    3 ar
     7    3    4 ar
     8    3   32 1
     9    4    5 ar
    10    4   28 1
    11    5    6 ar
    12    5   33 1
    13    6    7 ar
    14    6   10 1
    15    7    8 1
    16    8    9 1
    17    9   34 1
    18    9   35 1
    19    9   36 1
    20   10   11 2
    21   10   12 am
    22   12   13 1
    23   12   37 1
    24   13   14 2
    25   13   15 1
    26   15   16 1
    27   15   38 1
    28   16   20 1
    29   16   17 2
    30   17   18 1
    31   17   25 1
    32   18   24 1
    33   18   19 2
    34   19   20 1
    35   19   21 1
    36   21   22 1
    37   21   39 1
    38   21   40 1
    39   22   23 1
    40   22   41 1
    41   22   42 1
    42   23   24 1
    43   23   43 1
    44   23   44 1
    45   24   45 1
    46   24   46 1
    47   25   26 2
    48   25   27 am
    49   27   47 1
    50   27   48 1
@<TRIPOS>MOLECULE
ZINC20907751
   58    62     0     0     0
SMALL
USER_CHARGES
2-[[5-[(N'E)-N'-[(2-hydroxy-1-naphthyl)methylene]hydrazino]-4H-1,2,4-triazol-3-yl]sulfanyl]-N-[(1S)-tetralin-1-yl]acetamide
@<TRIPOS>ATOM
      1 C1         -0.0126    1.0758    0.0080 C.ar      1 <0>        -0.1350
      2 C2         -1.2341    1.7450    0.0174 C.ar      1 <0>        -0.0875
      3 C3         -1.2860    3.1071    0.0305 C.ar      1 <0>        -0.1327
      4 C4         -0.0961    3.8450    0.0227 C.ar      1 <0>         0.0224
      5 C5          1.1479    3.1677    0.0077 C.ar      1 <0>        -0.0953
      6 C6          1.1633    1.7622    0.0004 C.ar      1 <0>        -0.0803
      7 C7          2.3411    3.9103    0.0007 C.ar      1 <0>        -0.0301
      8 C8          2.3145    5.2701    0.0079 C.ar      1 <0>        -0.1612
      9 C9          1.1162    5.9807    0.0223 C.ar      1 <0>         0.2426
     10 C10        -0.1050    5.3064    0.0302 C.ar      1 <0>        -0.1984
     11 C11        -1.3729    6.0495    0.0463 C.2       1 <0>         0.1822
     12 N1         -1.3644    7.3499    0.0528 N.2       1 <0>        -0.3129
     13 N2         -2.5730    8.0582    0.0682 N.pl3     1 <0>        -0.5490
     14 C12        -2.5639    9.4451    0.0751 C.2       1 <0>         0.5367
     15 N3         -3.6648   10.2560    0.0899 N.2       1 <0>        -0.5465
     16 C13        -3.2342   11.5524    0.0923 C.2       1 <0>         0.2113
     17 N4         -1.9226   11.5440    0.0796 N.2       1 <0>        -0.3244
     18 N5         -1.4982   10.2089    0.0744 N.pl3     1 <0>        -0.4792
     19 S1         -4.2606   12.9845    0.1090 S.3       1 <0>         0.1153
     20 C14        -3.0857   14.3665    0.1049 C.3       1 <0>        -0.1654
     21 C15        -3.8428   15.6695    0.1184 C.2       1 <0>         0.5377
     22 O1         -5.0555   15.6661    0.1298 O.2       1 <0>        -0.5203
     23 N6         -3.1722   16.8386    0.1180 N.am      1 <0>        -0.7279
     24 C16        -3.9081   18.1052    0.1311 C.3       1 <0>         0.1905
     25 H1         -4.8269   17.9639    0.7192 H         1 <0>         0.1012
     26 C17        -3.0357   19.1880    0.7629 C.3       1 <0>        -0.1243
     27 C18        -3.7301   20.5417    0.5718 C.3       1 <0>        -0.1166
     28 C19        -3.6727   20.9072   -0.9100 C.3       1 <0>        -0.0837
     29 C20        -4.1769   19.7676   -1.7563 C.ar      1 <0>        -0.0692
     30 C21        -4.2781   18.4794   -1.2803 C.ar      1 <0>        -0.0981
     31 C22        -4.7377   17.4712   -2.1174 C.ar      1 <0>        -0.1053
     32 C23        -5.0975   17.7507   -3.4197 C.ar      1 <0>        -0.1271
     33 C24        -5.0006   19.0446   -3.8960 C.ar      1 <0>        -0.1140
     34 C25        -4.5421   20.0474   -3.0665 C.ar      1 <0>        -0.1272
     35 O2          1.1372    7.3387    0.0290 O.3       1 <0>        -0.5163
     36 H2          0.0021   -0.0041    0.0020 H         1 <0>         0.1261
     37 H3         -2.1527    1.1770    0.0191 H         1 <0>         0.1267
     38 H4         -2.2395    3.6142    0.0424 H         1 <0>         0.1260
     39 H5          2.1028    1.2296   -0.0114 H         1 <0>         0.1313
     40 H6          3.2903    3.3952   -0.0104 H         1 <0>         0.1403
     41 H7          3.2476    5.8138    0.0027 H         1 <0>         0.1384
     42 H8         -2.3291    5.5057    0.0529 H         1 <0>         0.1410
     43 H9         -3.5291    7.5144    0.0748 H         1 <0>         0.4475
     44 H10        -2.4448   14.3055    0.9968 H         1 <0>         0.1243
     45 H11        -2.4615   14.3144   -0.7993 H         1 <0>         0.1237
     46 H12        -2.0723   16.8417    0.1078 H         1 <0>         0.4258
     47 H13        -2.9096   18.9778    1.8352 H         1 <0>         0.0768
     48 H14        -2.0509   19.1977    0.2729 H         1 <0>         0.0741
     49 H15        -4.7770   20.4664    0.9008 H         1 <0>         0.0707
     50 H16        -3.2123   21.3069    1.1687 H         1 <0>         0.0761
     51 H17        -4.2994   21.7924   -1.0938 H         1 <0>         0.0777
     52 H18        -2.6331   21.1288   -1.1930 H         1 <0>         0.0784
     53 H19        -4.8140   16.4599   -1.7459 H         1 <0>         0.1291
     54 H20        -5.4537   16.9612   -4.0648 H         1 <0>         0.1207
     55 H21        -5.2823   19.2699   -4.9139 H         1 <0>         0.1211
     56 H22        -4.4664   21.0582   -3.4394 H         1 <0>         0.1206
     57 H23         0.1932    7.9033    0.0404 H         1 <0>         0.4257
     58 H24        -0.4962    9.7550    0.0702 H         1 <0>         0.4659
@<TRIPOS>BOND
     1    1    6 ar
     2    1    2 ar
     3    1   36 1
     4    2    3 ar
     5    2   37 1
     6    3    4 ar
     7    3   38 1
     8    4   10 ar
     9    4    5 ar
    10    5    6 ar
    11    5    7 ar
    12    6   39 1
    13    7    8 ar
    14    7   40 1
    15    8    9 ar
    16    8   41 1
    17    9   10 ar
    18    9   35 1
    19   10   11 1
    20   11   12 2
    21   11   42 1
    22   12   13 1
    23   13   14 1
    24   13   43 1
    25   14   18 1
    26   14   15 2
    27   15   16 1
    28   16   17 2
    29   16   19 1
    30   17   18 1
    31   18   58 1
    32   19   20 1
    33   20   21 1
    34   20   44 1
    35   20   45 1
    36   21   22 2
    37   21   23 am
    38   23   24 1
    39   23   46 1
    40   24   25 1
    41   24   30 1
    42   24   26 1
    43   26   27 1
    44   26   47 1
    45   26   48 1
    46   27   28 1
    47   27   49 1
    48   27   50 1
    49   28   29 1
    50   28   51 1
    51   28   52 1
    52   29   34 ar
    53   29   30 ar
    54   30   31 ar
    55   31   32 ar
    56   31   53 1
    57   32   33 ar
    58   32   54 1
    59   33   34 ar
    60   33   55 1
    61   34   56 1
    62   35   57 1
@<TRIPOS>MOLECULE
ZINC36543187
   58    60     0     0     0
SMALL
USER_CHARGES

@<TRIPOS>ATOM
      1 C1          2.1617   -0.7485    0.1316 C.3       1 <0>        -0.1530
      2 C2          1.6129   -2.1763    0.1619 C.3       1 <0>        -0.1213
      3 C3          0.0847   -2.1368    0.0985 C.3       1 <0>        -0.1317
      4 C4         -0.4641   -3.5646    0.1287 C.3       1 <0>         0.1225
      5 N1         -1.9274   -3.5267    0.0680 N.am      1 <0>        -0.7290
      6 C5         -2.6324   -4.6753    0.0816 C.2       1 <0>         0.5107
      7 O1         -2.0554   -5.7403    0.1442 O.2       1 <0>        -0.5005
      8 C6         -4.1376   -4.6363    0.0191 C.3       1 <0>         0.1909
      9 H1         -4.4505   -3.9973   -0.8065 H         1 <0>         0.1150
     10 C7         -4.6800   -4.0868    1.3133 C.ar      1 <0>        -0.1720
     11 C8         -4.4270   -4.7461    2.5067 C.ar      1 <0>         0.1739
     12 C9         -4.9262   -4.2404    3.6976 C.ar      1 <0>        -0.1784
     13 C10        -5.6779   -3.0751    3.6951 C.ar      1 <0>         0.1574
     14 C11        -5.9301   -2.4152    2.5017 C.ar      1 <0>        -0.1836
     15 C12        -5.4273   -2.9186    1.3114 C.ar      1 <0>         0.1606
     16 O2         -5.6705   -2.2695    0.1425 O.3       1 <0>        -0.4903
     17 O3         -6.1678   -2.5800    4.8620 O.3       1 <0>        -0.4932
     18 O4         -3.6904   -5.8881    2.5092 O.3       1 <0>        -0.4697
     19 N2         -4.6529   -5.9917   -0.1899 N.am      1 <0>        -0.5407
     20 C13        -5.4407   -6.5999    0.7932 C.ar      1 <0>         0.1501
     21 C14        -6.7168   -6.1201    1.0578 C.ar      1 <0>        -0.1188
     22 C15        -7.4923   -6.7230    2.0287 C.ar      1 <0>        -0.1113
     23 C16        -6.9997   -7.8033    2.7378 C.ar      1 <0>        -0.1003
     24 C17        -5.7298   -8.2842    2.4776 C.ar      1 <0>        -0.1064
     25 C18        -4.9504   -7.6892    1.5034 C.ar      1 <0>         0.0150
     26 Cl1        -3.3584   -8.2974    1.1723 Cl        1 <0>        -0.0363
     27 C19        -4.3680   -6.6526   -1.3294 C.2       1 <0>         0.5800
     28 O5         -3.6124   -6.1606   -2.1449 O.2       1 <0>        -0.5083
     29 C20        -4.9740   -7.9752   -1.5876 C.ar      1 <0>        -0.1210
     30 C21        -6.2587   -8.2607   -1.1210 C.ar      1 <0>        -0.0808
     31 C22        -6.8190   -9.4968   -1.3650 C.ar      1 <0>        -0.1153
     32 C23        -6.1100  -10.4543   -2.0715 C.ar      1 <0>        -0.0106
     33 C24        -4.8352  -10.1770   -2.5369 C.ar      1 <0>        -0.1168
     34 C25        -4.2666   -8.9425   -2.3041 C.ar      1 <0>        -0.0444
     35 Cl2        -6.8218  -12.0085   -2.3743 Cl        1 <0>        -0.0625
     36 H2          3.2504   -0.7767    0.1768 H         1 <0>         0.0566
     37 H3          1.8489   -0.2585   -0.7904 H         1 <0>         0.0550
     38 H4          1.7768   -0.1931    0.9869 H         1 <0>         0.0541
     39 H5          1.9978   -2.7317   -0.6933 H         1 <0>         0.0656
     40 H6          1.9257   -2.6663    1.0839 H         1 <0>         0.0643
     41 H7         -0.3002   -1.5814    0.9537 H         1 <0>         0.0679
     42 H8         -0.2281   -1.6468   -0.8236 H         1 <0>         0.0699
     43 H9         -0.0792   -4.1200   -0.7265 H         1 <0>         0.0685
     44 H10        -0.1513   -4.0546    1.0508 H         1 <0>         0.0653
     45 H11        -2.3888   -2.6750    0.0179 H         1 <0>         0.4004
     46 H12        -4.7298   -4.7543    4.6270 H         1 <0>         0.1404
     47 H13        -6.5159   -1.5079    2.4997 H         1 <0>         0.1422
     48 H14        -6.4793   -2.5542   -0.3046 H         1 <0>         0.3981
     49 H15        -5.5729   -1.9612    5.3072 H         1 <0>         0.3984
     50 H16        -2.7403   -5.7430    2.6165 H         1 <0>         0.3893
     51 H17        -7.1022   -5.2761    0.5051 H         1 <0>         0.1257
     52 H18        -8.4847   -6.3500    2.2346 H         1 <0>         0.1306
     53 H19        -7.6083   -8.2722    3.4969 H         1 <0>         0.1317
     54 H20        -5.3480   -9.1280    3.0332 H         1 <0>         0.1333
     55 H21        -6.8123   -7.5150   -0.5697 H         1 <0>         0.1427
     56 H22        -7.8124   -9.7189   -1.0043 H         1 <0>         0.1386
     57 H23        -4.2871  -10.9277   -3.0869 H         1 <0>         0.1410
     58 H24        -3.2745   -8.7258   -2.6717 H         1 <0>         0.1406
@<TRIPOS>BOND
     1    1    2 1
     2    1   36 1
     3    1   37 1
     4    1   38 1
     5    2    3 1
     6    2   39 1
     7    2   40 1
     8    3    4 1
     9    3   41 1
    10    3   42 1
    11    4    5 1
    12    4   43 1
    13    4   44 1
    14    5    6 am
    15    5   45 1
    16    6    7 2
    17    6    8 1
    18    8    9 1
    19    8   10 1
    20    8   19 1
    21   10   15 ar
    22   10   11 ar
    23   11   12 ar
    24   11   18 1
    25   12   13 ar
    26   12   46 1
    27   13   14 ar
    28   13   17 1
    29   14   15 ar
    30   14   47 1
    31   15   16 1
    32   16   48 1
    33   17   49 1
    34   18   50 1
    35   19   20 1
    36   19   27 am
    37   20   25 ar
    38   20   21 ar
    39   21   22 ar
    40   21   51 1
    41   22   23 ar
    42   22   52 1
    43   23   24 ar
    44   23   53 1
    45   24   25 ar
    46   24   54 1
    47   25   26 1
    48   27   28 2
    49   27   29 1
    50   29   34 ar
    51   29   30 ar
    52   30   31 ar
    53   30   55 1
    54   31   32 ar
    55   31   56 1
    56   32   33 ar
    57   32   35 1
    58   33   34 ar
    59   33   57 1
    60   34   58 1
@<TRIPOS>MOLECULE
ZINC01280165
   85    89     0     0     0
SMALL
USER_CHARGES

@<TRIPOS>ATOM
      1 C1          1.3495    2.2528   -1.1158 C.3       1 <0>        -0.1569
      2 C2          1.1907    0.8423   -0.5448 C.3       1 <0>        -0.0357
      3 C3         -0.2732    0.4648   -0.5307 C.3       1 <0>        -0.1087
      4 C4         -1.0372    1.6241    0.1282 C.3       1 <0>        -0.1112
      5 C5         -0.5393    1.9128    1.5437 C.3       1 <0>        -0.0893
      6 H1         -0.8688    1.0884    2.1759 H         1 <0>         0.1664
      7 C6          0.9636    1.9579    1.6132 C.2       1 <0>        -0.0189
      8 C7          1.6478    2.8993    2.2528 C.2       1 <0>        -0.2559
      9 C8          0.9372    3.9740    2.9552 C.2       1 <0>         0.4010
     10 O1          1.4813    5.0223    3.2332 O.2       1 <0>        -0.4570
     11 C9         -0.5093    3.7085    3.3161 C.3       1 <0>        -0.1218
     12 H2         -0.9857    4.6359    3.6342 H         1 <0>         0.0956
     13 C10        -1.2021    3.1748    2.0671 C.3       1 <0>        -0.0361
     14 C11        -2.6701    2.8916    2.3992 C.3       1 <0>        -0.1052
     15 C12        -2.7447    1.8507    3.5182 C.3       1 <0>         0.0749
     16 H3         -3.7889    1.6476    3.7560 H         1 <0>         0.0617
     17 C13        -2.0333    2.3845    4.7629 C.3       1 <0>         0.0760
     18 H4         -2.5186    3.3030    5.0928 H         1 <0>         0.0634
     19 C14        -0.5683    2.6824    4.4491 C.3       1 <0>        -0.0939
     20 O2         -2.1012    1.4092    5.8051 O.3       1 <0>        -0.5627
     21 O3         -2.1109    0.6440    3.0889 O.3       1 <0>        -0.5334
     22 C15        -1.1597    4.2442    0.9738 C.3       1 <0>        -0.1585
     23 C16         1.6850    0.8209    0.9290 C.3       1 <0>         0.1561
     24 C17         3.1963    0.9685    0.7390 C.3       1 <0>        -0.1414
     25 C18         3.4852    0.0231   -0.4613 C.3       1 <0>        -0.1133
     26 C19         2.1540   -0.1019   -1.2476 C.3       1 <0>        -0.0665
     27 H5          2.2961    0.2044   -2.2840 H         1 <0>         0.0848
     28 C20         1.6318   -1.5386   -1.1837 C.3       1 <0>         0.0955
     29 C21         2.7110   -2.5357   -1.6745 C.3       1 <0>         0.0540
     30 H6          3.7076   -2.2098   -1.3769 H         1 <0>         0.0798
     31 O4          2.3318   -3.7465   -0.9769 O.3       1 <0>        -0.3719
     32 C22         1.8566   -3.2992    0.3039 C.3       1 <0>         0.2442
     33 O5          1.4135   -1.9411    0.1836 O.3       1 <0>        -0.3022
     34 C23         2.9888   -3.3816    1.3297 C.3       1 <0>        -0.1641
     35 C24         0.6917   -4.1818    0.7568 C.3       1 <0>        -0.1504
     36 C25         2.6304   -2.7278   -3.1902 C.3       1 <0>        -0.1086
     37 C26         3.7852   -3.6181   -3.6536 C.3       1 <0>        -0.1419
     38 C27         3.7047   -3.8102   -5.1693 C.3       1 <0>         0.1263
     39 C28         4.7832   -4.7992   -5.6161 C.3       1 <0>        -0.1796
     40 C29         2.3252   -4.3575   -5.5415 C.3       1 <0>        -0.1421
     41 O6          3.9105   -2.5548   -5.8202 O.3       1 <0>        -0.5600
     42 C30         0.3464   -1.6816   -2.0012 C.3       1 <0>        -0.1801
     43 O7          1.3629   -0.4216    1.5570 O.3       1 <0>        -0.4871
     44 H7          2.3957    2.5530   -1.0568 H         1 <0>         0.0564
     45 H8          1.0271    2.2618   -2.1570 H         1 <0>         0.0604
     46 H9          0.7389    2.9486   -0.5404 H         1 <0>         0.0692
     47 H10        -0.6284    0.3187   -1.5508 H         1 <0>         0.0662
     48 H11        -0.4151   -0.4487    0.0468 H         1 <0>         0.0986
     49 H12        -0.9136    2.5202   -0.4800 H         1 <0>         0.0636
     50 H13        -2.0965    1.3708    0.1706 H         1 <0>         0.0638
     51 H14         2.7275    2.8737    2.2562 H         1 <0>         0.1316
     52 H15        -3.1532    3.8123    2.7262 H         1 <0>         0.0811
     53 H16        -3.1764    2.5096    1.5128 H         1 <0>         0.0829
     54 H17        -0.0698    1.7653    4.1353 H         1 <0>         0.0853
     55 H18        -0.0690    3.0848    5.3305 H         1 <0>         0.0744
     56 H19        -3.0022    1.1774    6.0688 H         1 <0>         0.3797
     57 H20        -2.1206   -0.0620    3.7496 H         1 <0>         0.3744
     58 H21        -1.7956    3.9395    0.1426 H         1 <0>         0.0691
     59 H22        -1.5183    5.1911    1.3775 H         1 <0>         0.0566
     60 H23        -0.1349    4.3640    0.6223 H         1 <0>         0.0571
     61 H24         3.4558    1.9978    0.4912 H         1 <0>         0.0763
     62 H25         3.7317    0.6375    1.6289 H         1 <0>         0.0698
     63 H26         4.2576    0.4530   -1.0990 H         1 <0>         0.0627
     64 H27         3.7997   -0.9558   -0.0996 H         1 <0>         0.0722
     65 H28         3.8262   -2.7686    0.9965 H         1 <0>         0.0561
     66 H29         2.6330   -3.0177    2.2936 H         1 <0>         0.0721
     67 H30         3.3138   -4.4172    1.4298 H         1 <0>         0.0648
     68 H31         1.0349   -5.2110    0.8614 H         1 <0>         0.0646
     69 H32         0.3167   -3.8245    1.7159 H         1 <0>         0.0746
     70 H33        -0.1065   -4.1385    0.0157 H         1 <0>         0.0620
     71 H34         1.6821   -3.2000   -3.4467 H         1 <0>         0.0807
     72 H35         2.6986   -1.7582   -3.6835 H         1 <0>         0.0821
     73 H36         4.7336   -3.1459   -3.3971 H         1 <0>         0.0623
     74 H37         3.7170   -4.5877   -3.1603 H         1 <0>         0.0770
     75 H38         4.6262   -5.7568   -5.1197 H         1 <0>         0.0659
     76 H39         4.7258   -4.9361   -6.6960 H         1 <0>         0.0638
     77 H40         5.7659   -4.4093   -5.3510 H         1 <0>         0.0572
     78 H41         1.5568   -3.6529   -5.2232 H         1 <0>         0.0657
     79 H42         2.2678   -4.4943   -6.6213 H         1 <0>         0.0609
     80 H43         2.1682   -5.3151   -5.0450 H         1 <0>         0.0698
     81 H44         4.7670   -2.1485   -5.6292 H         1 <0>         0.3741
     82 H45         0.4317   -1.0974   -2.9175 H         1 <0>         0.0630
     83 H46         0.1904   -2.7307   -2.2523 H         1 <0>         0.0583
     84 H47        -0.4985   -1.3185   -1.4161 H         1 <0>         0.0904
     85 H48         1.6509   -0.4831    2.4781 H         1 <0>         0.3579
@<TRIPOS>BOND
     1    1    2 1
     2    1   44 1
     3    1   45 1
     4    1   46 1
     5    2   23 1
     6    2   26 1
     7    2    3 1
     8    3    4 1
     9    3   47 1
    10    3   48 1
    11    4    5 1
    12    4   49 1
    13    4   50 1
    14    5    6 1
    15    5   13 1
    16    5    7 1
    17    7    8 2
    18    7   23 1
    19    8    9 1
    20    8   51 1
    21    9   10 2
    22    9   11 1
    23   11   12 1
    24   11   19 1
    25   11   13 1
    26   13   14 1
    27   13   22 1
    28   14   15 1
    29   14   52 1
    30   14   53 1
    31   15   16 1
    32   15   17 1
    33   15   21 1
    34   17   18 1
    35   17   19 1
    36   17   20 1
    37   19   54 1
    38   19   55 1
    39   20   56 1
    40   21   57 1
    41   22   58 1
    42   22   59 1
    43   22   60 1
    44   23   24 1
    45   23   43 1
    46   24   25 1
    47   24   61 1
    48   24   62 1
    49   25   26 1
    50   25   63 1
    51   25   64 1
    52   26   27 1
    53   26   28 1
    54   28   33 1
    55   28   29 1
    56   28   42 1
    57   29   30 1
    58   29   31 1
    59   29   36 1
    60   31   32 1
    61   32   33 1
    62   32   34 1
    63   32   35 1
    64   34   65 1
    65   34   66 1
    66   34   67 1
    67   35   68 1
    68   35   69 1
    69   35   70 1
    70   36   37 1
    71   36   71 1
    72   36   72 1
    73   37   38 1
    74   37   73 1
    75   37   74 1
    76   38   39 1
    77   38   40 1
    78   38   41 1
    79   39   75 1
    80   39   76 1
    81   39   77 1
    82   40   78 1
    83   40   79 1
    84   40   80 1
    85   41   81 1
    86   42   82 1
    87   42   83 1
    88   42   84 1
    89   43   85 1
@<TRIPOS>MOLECULE
ZINC12602769
   66    70     0     0     0
SMALL
USER_CHARGES
[(2R,4S,5R)-5-(5-cyclopentyl-2-methyl-pyrazol-3-yl)quinuclidin-2-yl]methyl N-[3-(trifluoromethyl)phenyl]carbamate
@<TRIPOS>ATOM
      1 C1         -7.1966   -1.6248    0.8195 C.3       1 <0>         0.0820
      2 N1         -6.1961   -1.9786    1.8296 N.pl3     1 <0>        -0.3631
      3 C2         -5.5178   -1.1135    2.6122 C.2       1 <0>         0.0617
      4 C3         -4.6894   -1.8347    3.4026 C.2       1 <0>        -0.2582
      5 C4         -4.8736   -3.1874    3.0981 C.2       1 <0>         0.1022
      6 N2         -5.7743   -3.2746    2.1532 N.2       1 <0>        -0.2722
      7 C5         -4.1547   -4.3441    3.7432 C.3       1 <0>        -0.0201
      8 C6         -3.8383   -4.0143    5.2166 C.3       1 <0>        -0.1150
      9 C7         -2.4467   -4.6502    5.4578 C.3       1 <0>        -0.1274
     10 C8         -1.7133   -4.3855    4.1195 C.3       1 <0>        -0.1203
     11 C9         -2.8036   -4.5802    3.0456 C.3       1 <0>        -0.1102
     12 C10        -5.6537    0.3874    2.6030 C.3       1 <0>        -0.0295
     13 H1         -6.3986    0.6911    3.3385 H         1 <0>         0.1301
     14 C11        -4.3049    1.0268    2.9446 C.3       1 <0>        -0.0053
     15 C12        -4.8239    2.9723    1.5994 C.3       1 <0>        -0.0025
     16 C13        -6.1876    2.3889    1.2190 C.3       1 <0>        -0.1343
     17 C14        -6.0863    0.8584    1.2088 C.3       1 <0>        -0.1211
     18 H2         -7.0498    0.4207    0.9474 H         1 <0>         0.1355
     19 C15        -5.0095    0.4461    0.1972 C.3       1 <0>        -0.1361
     20 C16        -3.6782    1.0835    0.6053 C.3       1 <0>         0.0449
     21 H3         -3.3240    1.7313   -0.1965 H         1 <0>         0.1514
     22 C17        -2.6458   -0.0147    0.8679 C.3       1 <0>         0.0555
     23 O1         -1.3545    0.5903    1.1415 O.3       1 <0>        -0.3814
     24 C18        -0.3295   -0.2451    1.3952 C.2       1 <0>         0.6547
     25 O2         -0.5091   -1.4469    1.3881 O.2       1 <0>        -0.5284
     26 N3          0.8970    0.2514    1.6515 N.am      1 <0>        -0.6395
     27 C19         1.9351   -0.6080    2.0288 C.ar      1 <0>         0.1478
     28 C20         1.6482   -1.8070    2.6684 C.ar      1 <0>        -0.0945
     29 C21         2.6745   -2.6553    3.0346 C.ar      1 <0>        -0.0934
     30 C22         3.9874   -2.3072    2.7747 C.ar      1 <0>        -0.0758
     31 C23         4.2767   -1.1117    2.1432 C.ar      1 <0>        -0.1565
     32 C24         3.2543   -0.2612    1.7696 C.ar      1 <0>        -0.0929
     33 C25         5.7089   -0.7358    1.8628 C.3       1 <0>         0.5093
     34 F1          6.2238   -0.0184    2.9479 F         1 <0>        -0.1724
     35 F2          6.4662   -1.8961    1.6692 F         1 <0>        -0.1712
     36 F3          5.7662    0.0560    0.7109 F         1 <0>        -0.1755
     37 H4         -6.6940   -1.3106   -0.0952 H         1 <0>         0.0809
     38 H5         -7.8237   -2.4914    0.6102 H         1 <0>         0.1017
     39 H6         -7.8163   -0.8093    1.1921 H         1 <0>         0.0927
     40 H7         -4.0081   -1.4363    4.1398 H         1 <0>         0.1479
     41 H8         -4.7674   -5.2437    3.6845 H         1 <0>         0.0903
     42 H9         -3.7955   -2.9353    5.3653 H         1 <0>         0.0693
     43 H10        -4.5818   -4.4620    5.8759 H         1 <0>         0.0710
     44 H11        -2.5380   -5.7205    5.6432 H         1 <0>         0.0719
     45 H12        -1.9323   -4.1591    6.2838 H         1 <0>         0.0697
     46 H13        -0.9061   -5.1042    3.9782 H         1 <0>         0.0688
     47 H14        -1.3258   -3.3672    4.0894 H         1 <0>         0.0619
     48 H15        -2.7603   -5.5946    2.6492 H         1 <0>         0.0709
     49 H16        -2.6679   -3.8581    2.2405 H         1 <0>         0.0645
     50 H17        -3.5647    0.2451    3.1154 H         1 <0>         0.1354
     51 H18        -4.4076    1.6337    3.8442 H         1 <0>         0.1432
     52 H19        -4.9224    3.5633    2.5100 H         1 <0>         0.1341
     53 H20        -4.4615    3.6071    0.7909 H         1 <0>         0.1325
     54 H21        -6.4726    2.7427    0.2281 H         1 <0>         0.1076
     55 H22        -6.9347    2.7006    1.9489 H         1 <0>         0.1063
     56 H23        -5.2908    0.7926   -0.7972 H         1 <0>         0.1168
     57 H24        -4.9088   -0.6392    0.1929 H         1 <0>         0.1046
     58 H25        -2.5675   -0.6571   -0.0092 H         1 <0>         0.1175
     59 H26        -2.9579   -0.6090    1.7267 H         1 <0>         0.1050
     60 H27         1.0602    1.2045    1.5744 H         1 <0>         0.4218
     61 H28         0.6233   -2.0775    2.8753 H         1 <0>         0.1523
     62 H29         2.4518   -3.5895    3.5287 H         1 <0>         0.1453
     63 H30         4.7885   -2.9704    3.0658 H         1 <0>         0.1443
     64 H31         3.4809    0.6724    1.2761 H         1 <0>         0.1432
     65 N4         -3.8462    1.8886    1.8343 N.4       1 <0>        -0.3884
     66 H32        -2.9419    2.3043    2.0865 H         1 <0>         0.4387
@<TRIPOS>BOND
     1    1    2 1
     2    1   37 1
     3    1   38 1
     4    1   39 1
     5    2    6 1
     6    2    3 1
     7    3    4 2
     8    3   12 1
     9    4    5 1
    10    4   40 1
    11    5    6 2
    12    5    7 1
    13    7   11 1
    14    7    8 1
    15    7   41 1
    16    8    9 1
    17    8   42 1
    18    8   43 1
    19    9   10 1
    20    9   44 1
    21    9   45 1
    22   10   11 1
    23   10   46 1
    24   10   47 1
    25   11   48 1
    26   11   49 1
    27   12   13 1
    28   12   17 1
    29   12   14 1
    30   14   50 1
    31   14   51 1
    32   14   65 1
    33   15   16 1
    34   15   52 1
    35   15   53 1
    36   15   65 1
    37   16   17 1
    38   16   54 1
    39   16   55 1
    40   17   18 1
    41   17   19 1
    42   19   20 1
    43   19   56 1
    44   19   57 1
    45   20   21 1
    46   20   22 1
    47   20   65 1
    48   22   23 1
    49   22   58 1
    50   22   59 1
    51   23   24 1
    52   24   25 2
    53   24   26 am
    54   26   27 1
    55   26   60 1
    56   27   32 ar
    57   27   28 ar
    58   28   29 ar
    59   28   61 1
    60   29   30 ar
    61   29   62 1
    62   30   31 ar
    63   30   63 1
    64   31   32 ar
    65   31   33 1
    66   32   64 1
    67   33   34 1
    68   33   35 1
    69   33   36 1
    70   65   66 1
@<TRIPOS>MOLECULE
ZINC09346183
   59    64     0     0     0
SMALL
USER_CHARGES

@<TRIPOS>ATOM
      1 C1          0.0767    1.6077   -0.4558 C.3       1 <0>        -0.1275
      2 C2          0.0526    0.1020   -0.3982 C.ar      1 <0>        -0.0448
      3 C3         -0.0715   -0.6324   -1.5628 C.ar      1 <0>        -0.1120
      4 C4         -0.0936   -2.0135   -1.5100 C.ar      1 <0>        -0.0886
      5 C5          0.0090   -2.6604   -0.2926 C.ar      1 <0>        -0.1522
      6 C6          0.1341   -1.9261    0.8719 C.ar      1 <0>        -0.0824
      7 C7          0.1605   -0.5450    0.8186 C.ar      1 <0>        -0.1090
      8 C8         -0.0161   -4.1661   -0.2349 C.3       1 <0>         0.2559
      9 H1         -0.3839   -4.5347   -1.1925 H         1 <0>         0.1247
     10 C9          1.4041   -4.6550   -0.0552 C.2       1 <0>        -0.1930
     11 C10         1.6825   -5.4136    1.0249 C.2       1 <0>         0.1879
     12 C11         3.0789   -5.8942    1.1824 C.ar      1 <0>        -0.1505
     13 C12         3.5405   -6.3968    2.3910 C.ar      1 <0>        -0.0695
     14 C13         4.8483   -6.8314    2.4943 C.ar      1 <0>        -0.1348
     15 C14         5.6928   -6.7655    1.3997 C.ar      1 <0>        -0.0545
     16 C15         5.2400   -6.2671    0.1921 C.ar      1 <0>        -0.1334
     17 C16         3.9325   -5.8292    0.0739 C.ar      1 <0>         0.1592
     18 O1          3.4599   -5.3413   -1.1011 O.3       1 <0>        -0.2835
     19 C17         2.4802   -4.3029   -1.0402 C.3       1 <0>         0.2210
     20 H2          2.0360   -4.1681   -2.0264 H         1 <0>         0.1415
     21 C18         3.1424   -3.0172   -0.6164 C.ar      1 <0>        -0.1338
     22 C19         2.9302   -1.8598   -1.3432 C.ar      1 <0>        -0.0661
     23 C20         3.5356   -0.6801   -0.9582 C.ar      1 <0>        -0.0950
     24 C21         4.3587   -0.6565    0.1614 C.ar      1 <0>        -0.0643
     25 C22         4.5692   -1.8214    0.8895 C.ar      1 <0>        -0.1327
     26 C23         3.9563   -2.9963    0.5016 C.ar      1 <0>        -0.0846
     27 S1          5.1338    0.8465    0.6562 S.3       1 <0>        -0.1041
     28 C24         6.0830    0.3856    2.1318 C.3       1 <0>        -0.1471
     29 N1          0.7289   -5.7298    1.9344 N.pl3     1 <0>        -0.5493
     30 C25        -0.5279   -5.3468    1.8553 C.cat     1 <0>         0.6216
     31 N2         -0.9688   -4.5687    0.8073 N.pl3     1 <0>        -0.3775
     32 N3         -2.3306   -4.3410    1.0191 N.pl3     1 <0>        -0.4144
     33 C26        -2.6521   -4.9852    2.1850 C.2       1 <0>         0.3787
     34 N4         -1.5827   -5.5716    2.6595 N.2       1 <0>        -0.5219
     35 S2         -4.2508   -5.0230    2.9247 S.3       1 <0>         0.1223
     36 C27        -4.0184   -6.0215    4.4212 C.3       1 <0>        -0.1583
     37 H3          1.1049    1.9505   -0.5710 H         1 <0>         0.0818
     38 H4         -0.5171    1.9483   -1.3040 H         1 <0>         0.0743
     39 H5         -0.3404    2.0132    0.4659 H         1 <0>         0.0719
     40 H6         -0.1517   -0.1270   -2.5139 H         1 <0>         0.1352
     41 H7         -0.1913   -2.5872   -2.4198 H         1 <0>         0.1316
     42 H8          0.2139   -2.4314    1.8230 H         1 <0>         0.1045
     43 H9          0.2619    0.0286    1.7281 H         1 <0>         0.1271
     44 H10         2.8819   -6.4477    3.2455 H         1 <0>         0.1288
     45 H11         5.2127   -7.2234    3.4323 H         1 <0>         0.1412
     46 H12         6.7136   -7.1065    1.4895 H         1 <0>         0.1451
     47 H13         5.9056   -6.2189   -0.6571 H         1 <0>         0.1489
     48 H14         2.2905   -1.8789   -2.2131 H         1 <0>         0.1292
     49 H15         3.3701    0.2232   -1.5266 H         1 <0>         0.1309
     50 H16         5.2082   -1.8068    1.7601 H         1 <0>         0.1251
     51 H17         4.1162   -3.9011    1.0692 H         1 <0>         0.1249
     52 H18         5.4053    0.0026    2.8947 H         1 <0>         0.0835
     53 H19         6.8090   -0.3844    1.8709 H         1 <0>         0.0865
     54 H20         6.6050    1.2619    2.5163 H         1 <0>         0.1145
     55 H21        -4.9657   -6.1031    4.9543 H         1 <0>         0.1405
     56 H22        -3.6707   -7.0165    4.1437 H         1 <0>         0.1101
     57 H23        -3.2792   -5.5447    5.0650 H         1 <0>         0.1095
     58 H24         0.9896   -6.2745    2.6935 H         1 <0>         0.4481
     59 H25        -2.9295   -3.8288    0.4535 H         1 <0>         0.4789
@<TRIPOS>BOND
     1    1    2 1
     2    1   37 1
     3    1   38 1
     4    1   39 1
     5    2    7 ar
     6    2    3 ar
     7    3    4 ar
     8    3   40 1
     9    4    5 ar
    10    4   41 1
    11    5    6 ar
    12    5    8 1
    13    6    7 ar
    14    6   42 1
    15    7   43 1
    16    8    9 1
    17    8   31 1
    18    8   10 1
    19   10   19 1
    20   10   11 2
    21   11   12 1
    22   11   29 1
    23   12   17 ar
    24   12   13 ar
    25   13   14 ar
    26   13   44 1
    27   14   15 ar
    28   14   45 1
    29   15   16 ar
    30   15   46 1
    31   16   17 ar
    32   16   47 1
    33   17   18 1
    34   18   19 1
    35   19   20 1
    36   19   21 1
    37   21   26 ar
    38   21   22 ar
    39   22   23 ar
    40   22   48 1
    41   23   24 ar
    42   23   49 1
    43   24   25 ar
    44   24   27 1
    45   25   26 ar
    46   25   50 1
    47   26   51 1
    48   27   28 1
    49   28   52 1
    50   28   53 1
    51   28   54 1
    52   29   30 2
    53   29   58 1
    54   30   34 1
    55   30   31 1
    56   31   32 1
    57   32   33 1
    58   32   59 1
    59   33   34 2
    60   33   35 1
    61   35   36 1
    62   36   55 1
    63   36   56 1
    64   36   57 1
@<TRIPOS>MOLECULE
ZINC04090333
   59    64     0     0     0
SMALL
USER_CHARGES

@<TRIPOS>ATOM
      1 C1         -2.1550    0.3178   -2.2237 C.3       1 <0>        -0.1238
      2 C2         -1.9874   -1.1161   -1.7912 C.ar      1 <0>        -0.0518
      3 C3         -2.5333   -2.1336   -2.5532 C.ar      1 <0>        -0.1181
      4 C4         -2.3830   -3.4484   -2.1629 C.ar      1 <0>        -0.0727
      5 C5         -1.6788   -3.7507   -0.9972 C.ar      1 <0>        -0.0337
      6 C6         -1.1308   -2.7202   -0.2332 C.ar      1 <0>        -0.0594
      7 C7         -1.2835   -1.4097   -0.6370 C.ar      1 <0>        -0.1215
      8 C8         -1.5143   -5.1587   -0.5726 C.2       1 <0>         0.1684
      9 N1         -0.8975   -5.6334    0.4825 N.2       1 <0>        -0.2601
     10 N2         -0.8511   -6.9891    0.7279 N.pl3     1 <0>        -0.4292
     11 C9         -0.2989   -7.6007    1.8739 C.2       1 <0>         0.4734
     12 N3         -0.1449   -6.9813    3.0148 N.2       1 <0>        -0.6567
     13 C10         0.0906   -9.0213    1.6554 C.2       1 <0>        -0.2588
     14 C11         1.1727   -9.5856    2.2997 C.2       1 <0>         0.1447
     15 C12         1.6150  -10.8839    1.9387 C.2       1 <0>        -0.2014
     16 C13         1.5854  -11.4893    0.5995 C.2       1 <0>        -0.1165
     17 C14         2.1014  -12.7226    0.7282 C.2       1 <0>         0.0193
     18 N4          2.4481  -12.9315    2.0348 N.pl3     1 <0>        -0.3896
     19 C15         2.1691  -11.8394    2.7748 C.2       1 <0>         0.1088
     20 C16         2.4141  -11.6862    4.2538 C.3       1 <0>        -0.0968
     21 C17         3.0154  -14.1089    2.5318 C.ar      1 <0>         0.1101
     22 C18         4.3846  -14.2606    2.5652 C.ar      1 <0>        -0.0902
     23 C19         4.9595  -15.4283    3.0578 C.ar      1 <0>        -0.1150
     24 C20         4.1882  -16.4509    3.5198 C.ar      1 <0>        -0.0851
     25 C21         2.7879  -16.3359    3.5036 C.ar      1 <0>        -0.0478
     26 C22         2.1913  -15.1498    3.0089 C.ar      1 <0>        -0.0396
     27 C23         0.7923  -15.0345    2.9980 C.ar      1 <0>        -0.1048
     28 C24         0.0279  -16.0592    3.4664 C.ar      1 <0>        -0.1046
     29 C25         0.6138  -17.2241    3.9580 C.ar      1 <0>        -0.1096
     30 C26         1.9663  -17.3752    3.9737 C.ar      1 <0>        -0.1045
     31 C27         2.2712  -13.7188   -0.3898 C.3       1 <0>        -0.0846
     32 C28        -0.7462   -9.7972    0.7092 C.2       1 <0>         0.5476
     33 O1         -0.8217  -11.0128    0.7893 O.2       1 <0>        -0.4294
     34 N5         -1.4216   -9.1217   -0.2419 N.2       1 <0>        -0.5406
     35 C29        -1.4208   -7.8127   -0.2202 C.2       1 <0>         0.3931
     36 S1         -2.1124   -6.6462   -1.3630 S.3       1 <0>         0.0983
     37 H1         -1.3268    0.6004   -2.8736 H         1 <0>         0.0786
     38 H2         -3.0950    0.4267   -2.7646 H         1 <0>         0.0727
     39 H3         -2.1643    0.9634   -1.3455 H         1 <0>         0.0722
     40 H4         -3.0785   -1.8982   -3.4553 H         1 <0>         0.1368
     41 H5         -2.8099   -4.2419   -2.7584 H         1 <0>         0.1328
     42 H6         -0.5845   -2.9479    0.6702 H         1 <0>         0.1361
     43 H7         -0.8562   -0.6112   -0.0486 H         1 <0>         0.1351
     44 H8         -0.4161   -6.0542    3.1038 H         1 <0>         0.3569
     45 H9          1.6827   -9.0385    3.0788 H         1 <0>         0.1419
     46 H10         1.2201  -11.0327   -0.3086 H         1 <0>         0.1408
     47 H11         1.5360  -12.0236    4.8044 H         1 <0>         0.0826
     48 H12         3.2770  -12.2861    4.5432 H         1 <0>         0.0724
     49 H13         2.6066  -10.6383    4.4836 H         1 <0>         0.0882
     50 H14         5.0188  -13.4643    2.2045 H         1 <0>         0.1311
     51 H15         6.0351  -15.5252    3.0736 H         1 <0>         0.1344
     52 H16         4.6523  -17.3497    3.8981 H         1 <0>         0.1352
     53 H17         0.3246  -14.1373    2.6202 H         1 <0>         0.1293
     54 H18        -1.0482  -15.9678    3.4572 H         1 <0>         0.1272
     55 H19        -0.0150  -18.0224    4.3238 H         1 <0>         0.1278
     56 H20         2.4065  -18.2840    4.3569 H         1 <0>         0.1326
     57 H21         3.2509  -13.5863   -0.8488 H         1 <0>         0.0707
     58 H22         2.1906  -14.7299    0.0092 H         1 <0>         0.0637
     59 H23         1.4948  -13.5606   -1.1384 H         1 <0>         0.0828
@<TRIPOS>BOND
     1    1    2 1
     2    1   37 1
     3    1   38 1
     4    1   39 1
     5    2    7 ar
     6    2    3 ar
     7    3    4 ar
     8    3   40 1
     9    4    5 ar
    10    4   41 1
    11    5    6 ar
    12    5    8 1
    13    6    7 ar
    14    6   42 1
    15    7   43 1
    16    8   36 1
    17    8    9 2
    18    9   10 1
    19   10   35 1
    20   10   11 1
    21   11   12 2
    22   11   13 1
    23   12   44 1
    24   13   14 2
    25   13   32 1
    26   14   15 1
    27   14   45 1
    28   15   19 2
    29   15   16 1
    30   16   17 2
    31   16   46 1
    32   17   18 1
    33   17   31 1
    34   18   19 1
    35   18   21 1
    36   19   20 1
    37   20   47 1
    38   20   48 1
    39   20   49 1
    40   21   26 ar
    41   21   22 ar
    42   22   23 ar
    43   22   50 1
    44   23   24 ar
    45   23   51 1
    46   24   25 ar
    47   24   52 1
    48   25   30 ar
    49   25   26 ar
    50   26   27 ar
    51   27   28 ar
    52   27   53 1
    53   28   29 ar
    54   28   54 1
    55   29   30 ar
    56   29   55 1
    57   30   56 1
    58   31   57 1
    59   31   58 1
    60   31   59 1
    61   32   33 2
    62   32   34 1
    63   34   35 2
    64   35   36 1
@<TRIPOS>MOLECULE
ZINC63572431
   54    58     0     0     0
SMALL
USER_CHARGES

@<TRIPOS>ATOM
      1 C1          1.9591    0.8856    1.3489 C.3       1 <0>         0.0256
      2 O1          1.7763   -0.5285    1.2550 O.3       1 <0>        -0.3211
      3 C2          2.6270   -1.2082    0.4401 C.ar      1 <0>         0.1084
      4 C3          3.6189   -0.5296   -0.2489 C.ar      1 <0>        -0.1753
      5 C4          4.4828   -1.2214   -1.0774 C.ar      1 <0>        -0.0788
      6 C5          4.3603   -2.5922   -1.2209 C.ar      1 <0>        -0.0525
      7 C6          3.3724   -3.2764   -0.5362 C.ar      1 <0>        -0.0821
      8 C7          2.5062   -2.5888    0.3010 C.ar      1 <0>         0.1345
      9 N1          1.5082   -3.2808    1.0008 N.am      1 <0>        -0.6651
     10 C8          0.9927   -4.4172    0.4916 C.2       1 <0>         0.7059
     11 O2          1.4547   -4.8907   -0.5286 O.2       1 <0>        -0.5270
     12 N2         -0.0349   -5.0288    1.1132 N.am      1 <0>        -0.6270
     13 C9         -0.6687   -4.3870    2.2695 C.3       1 <0>         0.1038
     14 C10        -2.1706   -4.1949    1.9898 C.3       1 <0>        -0.1031
     15 C11        -2.6718   -5.4935    1.4080 C.2       1 <0>         0.0670
     16 C12        -3.6945   -6.2695    1.7448 C.ar      1 <0>        -0.1544
     17 C13        -4.7729   -6.0953    2.7311 C.ar      1 <0>         0.0054
     18 C14        -5.6635   -7.1183    2.8329 C.ar      1 <0>        -0.0802
     19 C15        -5.5886   -8.2833    2.0611 C.ar      1 <0>         0.0517
     20 C16        -4.6359   -8.5231    1.1254 C.ar      1 <0>        -0.1839
     21 C17        -3.6482   -7.5160    0.9211 C.ar      1 <0>         0.3357
     22 N3         -2.6507   -7.4731    0.0879 N.pl3     1 <0>        -0.5606
     23 C18        -1.9826   -6.1795    0.2342 C.3       1 <0>         0.0711
     24 H1         -2.0922   -5.5874   -0.6744 H         1 <0>         0.1820
     25 C19        -0.5128   -6.3304    0.6207 C.3       1 <0>         0.2263
     26 H2         -0.4155   -7.0805    1.4056 H         1 <0>         0.1120
     27 C20         0.2894   -6.7455   -0.5856 C.ar      1 <0>        -0.1081
     28 C21         0.0809   -6.1218   -1.8016 C.ar      1 <0>        -0.0273
     29 C22         0.8163   -6.5013   -2.9085 C.ar      1 <0>        -0.1494
     30 C23         1.7621   -7.5066   -2.7991 C.ar      1 <0>         0.1241
     31 C24         1.9700   -8.1305   -1.5807 C.ar      1 <0>        -0.1515
     32 C25         1.2371   -7.7457   -0.4740 C.ar      1 <0>        -0.0711
     33 F1          2.4813   -7.8787   -3.8806 F         1 <0>        -0.1329
     34 Cl1        -6.9590   -6.9716    3.9792 Cl        1 <0>        -0.0174
     35 Cl2         5.4484   -3.4548   -2.2628 Cl        1 <0>        -0.0560
     36 H3          2.9592    1.0984    1.7266 H         1 <0>         0.0615
     37 H4          1.8404    1.3337    0.3624 H         1 <0>         0.0606
     38 H5          1.2172    1.3035    2.0295 H         1 <0>         0.1055
     39 H6          3.7171    0.5403   -0.1391 H         1 <0>         0.1452
     40 H7          5.2551   -0.6905   -1.6143 H         1 <0>         0.1412
     41 H8          3.2783   -4.3463   -0.6499 H         1 <0>         0.1679
     42 H9          1.1886   -2.9418    1.8516 H         1 <0>         0.4109
     43 H10        -0.5407   -5.0166    3.1500 H         1 <0>         0.0975
     44 H11        -0.2049   -3.4166    2.4461 H         1 <0>         0.1130
     45 H12        -2.6976   -3.9740    2.9180 H         1 <0>         0.1286
     46 H13        -2.3163   -3.3851    1.2750 H         1 <0>         0.1306
     47 H14        -4.8524   -5.2064    3.3393 H         1 <0>         0.1798
     48 H15        -6.3395   -9.0428    2.2214 H         1 <0>         0.1684
     49 H16        -4.6266   -9.4414    0.5570 H         1 <0>         0.1799
     50 H17        -0.6571   -5.3379   -1.8868 H         1 <0>         0.1175
     51 H18         0.6531   -6.0142   -3.8584 H         1 <0>         0.1361
     52 H19         2.7072   -8.9150   -1.4943 H         1 <0>         0.1385
     53 H20         1.4022   -8.2292    0.4775 H         1 <0>         0.1289
     54 H21        -2.3932   -8.1787   -0.5258 H         1 <0>         0.4597
@<TRIPOS>BOND
     1    1    2 1
     2    1   36 1
     3    1   37 1
     4    1   38 1
     5    2    3 1
     6    3    8 ar
     7    3    4 ar
     8    4    5 ar
     9    4   39 1
    10    5    6 ar
    11    5   40 1
    12    6    7 ar
    13    6   35 1
    14    7    8 ar
    15    7   41 1
    16    8    9 1
    17    9   10 am
    18    9   42 1
    19   10   11 2
    20   10   12 am
    21   12   25 1
    22   12   13 1
    23   13   14 1
    24   13   43 1
    25   13   44 1
    26   14   15 1
    27   14   45 1
    28   14   46 1
    29   15   23 1
    30   15   16 2
    31   16   21 ar
    32   16   17 ar
    33   17   18 ar
    34   17   47 1
    35   18   19 ar
    36   18   34 1
    37   19   20 ar
    38   19   48 1
    39   20   21 ar
    40   20   49 1
    41   21   22 2
    42   22   23 1
    43   22   54 1
    44   23   24 1
    45   23   25 1
    46   25   26 1
    47   25   27 1
    48   27   32 ar
    49   27   28 ar
    50   28   29 ar
    51   28   50 1
    52   29   30 ar
    53   29   51 1
    54   30   31 ar
    55   30   33 1
    56   31   32 ar
    57   31   52 1
    58   32   53 1
@<TRIPOS>MOLECULE
ZINC64623043
   54    58     0     0     0
SMALL
USER_CHARGES

@<TRIPOS>ATOM
      1 C1         -2.2795    1.7362   -2.6217 C.3       1 <0>         0.0253
      2 O1         -1.3254    0.9078   -1.9542 O.3       1 <0>        -0.3145
      3 C2         -0.5250    0.1358   -2.7354 C.ar      1 <0>         0.1477
      4 C3         -0.6514    0.1791   -4.1163 C.ar      1 <0>        -0.1977
      5 C4          0.1637   -0.6063   -4.9082 C.ar      1 <0>        -0.0534
      6 C5          1.1046   -1.4353   -4.3257 C.ar      1 <0>        -0.1192
      7 C6          1.2322   -1.4805   -2.9497 C.ar      1 <0>        -0.0534
      8 C7          0.4236   -0.6925   -2.1536 C.ar      1 <0>        -0.1401
      9 C8          1.9921   -2.2913   -5.1920 C.3       1 <0>         0.2283
     10 H1          1.9615   -1.9315   -6.2205 H         1 <0>         0.1078
     11 C9          3.4315   -2.2424   -4.6680 C.3       1 <0>         0.0711
     12 H2          3.4531   -2.4114   -3.5914 H         1 <0>         0.1753
     13 C10         4.1977   -3.3375   -5.3990 C.2       1 <0>         0.0630
     14 C11         5.2317   -2.7448   -5.9845 C.ar      1 <0>        -0.1583
     15 C12         6.3553   -3.2843   -6.7671 C.ar      1 <0>         0.0004
     16 C13         7.2494   -2.3748   -7.2375 C.ar      1 <0>        -0.1577
     17 C14         7.1393   -0.9995   -7.0102 C.ar      1 <0>         0.0552
     18 C15         6.1417   -0.4170   -6.2985 C.ar      1 <0>        -0.2045
     19 C16         5.1426   -1.2716   -5.7484 C.ar      1 <0>         0.3323
     20 N1          4.0906   -0.9791   -5.0042 N.pl3     1 <0>        -0.5764
     21 C17         3.7227   -4.7692   -5.4411 C.3       1 <0>        -0.1044
     22 C18         2.2494   -4.7339   -5.8866 C.3       1 <0>         0.1035
     23 N2          1.5391   -3.6901   -5.1402 N.am      1 <0>        -0.6273
     24 C19         0.4622   -4.0158   -4.3980 C.2       1 <0>         0.7051
     25 O2         -0.2120   -3.1416   -3.8887 O.2       1 <0>        -0.5152
     26 N3          0.1328   -5.3106   -4.2205 N.am      1 <0>        -0.6775
     27 C20        -1.0502   -5.6464   -3.5516 C.ar      1 <0>         0.1819
     28 C21        -1.5663   -4.7972   -2.5818 C.ar      1 <0>        -0.1208
     29 C22        -2.7338   -5.1310   -1.9238 C.ar      1 <0>        -0.0824
     30 C23        -3.3893   -6.3098   -2.2298 C.ar      1 <0>        -0.1242
     31 C24        -2.8786   -7.1579   -3.1948 C.ar      1 <0>        -0.0690
     32 C25        -1.7135   -6.8273   -3.8607 C.ar      1 <0>        -0.1232
     33 Br1        -1.0193   -7.9843   -5.1856 Br        1 <0>        -0.0458
     34 H3         -1.7594    2.4291   -3.2830 H         1 <0>         0.0572
     35 H4         -2.9552    1.1128   -3.2074 H         1 <0>         0.0587
     36 H5         -2.8518    2.2984   -1.8838 H         1 <0>         0.1056
     37 H6         -1.3867    0.8259   -4.5717 H         1 <0>         0.1305
     38 H7          0.0657   -0.5730   -5.9833 H         1 <0>         0.1202
     39 H8          1.9676   -2.1291   -2.4971 H         1 <0>         0.1141
     40 H9          0.5267   -0.7249   -1.0790 H         1 <0>         0.1316
     41 H10         6.4635   -4.3421   -6.9565 H         1 <0>         0.1705
     42 H11         8.0881   -2.7329   -7.8162 H         1 <0>         0.1557
     43 H12         7.8996   -0.3574   -7.4299 H         1 <0>         0.1584
     44 H13         6.1065    0.6528   -6.1540 H         1 <0>         0.1692
     45 H14         4.3154   -5.3378   -6.1577 H         1 <0>         0.1276
     46 H15         3.8021   -5.2177   -4.4508 H         1 <0>         0.1273
     47 H16         2.1972   -4.5163   -6.9534 H         1 <0>         0.0982
     48 H17         1.7866   -5.7009   -5.6894 H         1 <0>         0.1085
     49 H18         0.7153   -6.0097   -4.5562 H         1 <0>         0.4063
     50 H19        -1.0549   -3.8767   -2.3419 H         1 <0>         0.1585
     51 H20        -3.1353   -4.4709   -1.1692 H         1 <0>         0.1346
     52 H21        -4.3019   -6.5684   -1.7135 H         1 <0>         0.1365
     53 H22        -3.3926   -8.0779   -3.4312 H         1 <0>         0.1397
     54 H23         3.7972   -0.0959   -4.7307 H         1 <0>         0.4593
@<TRIPOS>BOND
     1    1    2 1
     2    1   34 1
     3    1   35 1
     4    1   36 1
     5    2    3 1
     6    3    8 ar
     7    3    4 ar
     8    4    5 ar
     9    4   37 1
    10    5    6 ar
    11    5   38 1
    12    6    7 ar
    13    6    9 1
    14    7    8 ar
    15    7   39 1
    16    8   40 1
    17    9   10 1
    18    9   23 1
    19    9   11 1
    20   11   12 1
    21   11   20 1
    22   11   13 1
    23   13   14 2
    24   13   21 1
    25   14   19 ar
    26   14   15 ar
    27   15   16 ar
    28   15   41 1
    29   16   17 ar
    30   16   42 1
    31   17   18 ar
    32   17   43 1
    33   18   19 ar
    34   18   44 1
    35   19   20 2
    36   20   54 1
    37   21   22 1
    38   21   45 1
    39   21   46 1
    40   22   23 1
    41   22   47 1
    42   22   48 1
    43   23   24 am
    44   24   25 2
    45   24   26 am
    46   26   27 1
    47   26   49 1
    48   27   32 ar
    49   27   28 ar
    50   28   29 ar
    51   28   50 1
    52   29   30 ar
    53   29   51 1
    54   30   31 ar
    55   30   52 1
    56   31   32 ar
    57   31   53 1
    58   32   33 1
@<TRIPOS>MOLECULE
ZINC02233271
   53    56     0     0     0
SMALL
USER_CHARGES
amino-N-sec-butyl-(4-sulfamoylphenyl)-BLAHcarboxamide
@<TRIPOS>ATOM
      1 C1         -7.5121    2.0762   10.1083 C.3       1 <0>        -0.1541
      2 C2         -6.5152    0.9450   10.3678 C.3       1 <0>        -0.1307
      3 C3         -5.0918    1.4571   10.1385 C.3       1 <0>         0.1381
      4 H1         -4.9190    2.3387   10.7557 H         1 <0>         0.0903
      5 C4         -4.0896    0.3649   10.5176 C.3       1 <0>        -0.1646
      6 N1         -4.9206    1.8082    8.7266 N.am      1 <0>        -0.7150
      7 C5         -3.9917    2.7155    8.3656 C.2       1 <0>         0.6112
      8 O1         -3.2947    3.2435    9.2131 O.2       1 <0>        -0.5285
      9 C6         -3.8209    3.0657    6.9573 C.2       1 <0>        -0.3080
     10 C7         -4.5145    4.1390    6.2264 C.ar      1 <0>         0.1788
     11 C8         -3.9911    4.0794    4.8587 C.ar      1 <0>         0.2869
     12 N2         -4.4378    4.9277    3.9576 N.ar      1 <0>        -0.4336
     13 C9         -5.3556    5.8413    4.2985 C.ar      1 <0>         0.0959
     14 C10        -5.8342    6.7565    3.3426 C.ar      1 <0>        -0.0838
     15 C11        -6.7667    7.6811    3.6978 C.ar      1 <0>        -0.1005
     16 C12        -7.2591    7.7390    5.0005 C.ar      1 <0>        -0.0997
     17 C13        -6.8201    6.8720    5.9523 C.ar      1 <0>        -0.0826
     18 C14        -5.8561    5.9008    5.6230 C.ar      1 <0>         0.0922
     19 N3         -5.4174    5.0423    6.5515 N.ar      1 <0>        -0.4148
     20 N4         -3.0776    3.0434    4.8215 N.pl3     1 <0>        -0.4514
     21 C15        -2.9718    2.4504    6.0442 C.2       1 <0>         0.4780
     22 N5         -2.1445    1.3964    6.3331 N.pl3     1 <0>        -0.8259
     23 C16        -2.3546    2.6592    3.6845 C.ar      1 <0>         0.1685
     24 C17        -2.5602    1.4076    3.1195 C.ar      1 <0>        -0.1358
     25 C18        -1.8457    1.0316    1.9989 C.ar      1 <0>        -0.0018
     26 C19        -0.9267    1.9002    1.4394 C.ar      1 <0>        -0.6727
     27 C20        -0.7160    3.1453    2.0029 C.ar      1 <0>        -0.0047
     28 C21        -1.4308    3.5290    3.1206 C.ar      1 <0>        -0.1150
     29 S1         -0.0172    1.4168    0.0098 S.o2      1 <0>         2.7039
     30 O2          0.0021   -0.0041    0.0020 O.2       1 <0>        -0.9539
     31 O3          1.1718    2.1948    0.0027 O.2       1 <0>        -0.9509
     32 N6         -0.8975    1.8855   -1.3122 N.pl3     1 <0>        -1.2419
     33 H2         -7.3092    2.9027   10.7893 H         1 <0>         0.0565
     34 H3         -7.4112    2.4204    9.0790 H         1 <0>         0.0563
     35 H4         -8.5262    1.7114   10.2716 H         1 <0>         0.0557
     36 H5         -6.7181    0.1185    9.6867 H         1 <0>         0.0667
     37 H6         -6.6161    0.6008   11.3971 H         1 <0>         0.0789
     38 H7         -3.0755    0.7297   10.3543 H         1 <0>         0.0603
     39 H8         -4.2170    0.1036   11.5682 H         1 <0>         0.0672
     40 H9         -4.2624   -0.5168    9.9004 H         1 <0>         0.0564
     41 H10        -5.4758    1.3876    8.0515 H         1 <0>         0.3994
     42 H11        -5.4620    6.7249    2.3293 H         1 <0>         0.1374
     43 H12        -7.1305    8.3807    2.9598 H         1 <0>         0.1360
     44 H13        -7.9989    8.4826    5.2578 H         1 <0>         0.1364
     45 H14        -7.2100    6.9289    6.9579 H         1 <0>         0.1400
     46 H15        -1.5789    1.0199    5.6409 H         1 <0>         0.4107
     47 H16        -2.1246    1.0271    7.2298 H         1 <0>         0.4295
     48 H17        -3.2778    0.7288    3.5560 H         1 <0>         0.1427
     49 H18        -2.0052    0.0582    1.5590 H         1 <0>         0.1547
     50 H19         0.0054    3.8200    1.5661 H         1 <0>         0.1547
     51 H20        -1.2685    4.5030    3.5580 H         1 <0>         0.1417
     52 H21        -1.2009    1.2230   -1.9525 H         1 <0>         0.4244
     53 H22        -1.1097    2.8224   -1.4463 H         1 <0>         0.4205
@<TRIPOS>BOND
     1    1    2 1
     2    1   33 1
     3    1   34 1
     4    1   35 1
     5    2    3 1
     6    2   36 1
     7    2   37 1
     8    3    4 1
     9    3    5 1
    10    3    6 1
    11    5   38 1
    12    5   39 1
    13    5   40 1
    14    6    7 am
    15    6   41 1
    16    7    8 2
    17    7    9 1
    18    9   21 2
    19    9   10 1
    20   10   19 ar
    21   10   11 ar
    22   11   12 ar
    23   11   20 1
    24   12   13 ar
    25   13   18 ar
    26   13   14 ar
    27   14   15 ar
    28   14   42 1
    29   15   16 ar
    30   15   43 1
    31   16   17 ar
    32   16   44 1
    33   17   18 ar
    34   17   45 1
    35   18   19 ar
    36   20   21 1
    37   20   23 1
    38   21   22 1
    39   22   46 1
    40   22   47 1
    41   23   28 ar
    42   23   24 ar
    43   24   25 ar
    44   24   48 1
    45   25   26 ar
    46   25   49 1
    47   26   27 ar
    48   26   29 1
    49   27   28 ar
    50   27   50 1
    51   28   51 1
    52   29   30 2
    53   29   31 2
    54   29   32 1
    55   32   52 1
    56   32   53 1
@<TRIPOS>MOLECULE
ZINC20922567
   53    55     0     0     0
SMALL
USER_CHARGES
2-[(4-amino-5-hydrazino-1,2,4-triazol-3-yl)sulfanyl]-N-[4-[(4-methyl-1-piperidyl)sulfonyl]phenyl]acetamide
@<TRIPOS>ATOM
      1 C1         -9.1819  -11.2872    3.7915 C.3       1 <0>        -0.1501
      2 C2         -8.0731  -10.3844    3.2473 C.3       1 <0>        -0.0917
      3 C3         -8.6873   -9.3052    2.3528 C.3       1 <0>        -0.1293
      4 C4         -7.5782   -8.3825    1.8376 C.3       1 <0>         0.1144
      5 N1         -6.5510   -9.2002    1.1781 N.pl3     1 <0>        -0.9957
      6 C5         -5.9629  -10.3261    1.9164 C.3       1 <0>         0.1147
      7 C6         -7.0861  -11.2236    2.4327 C.3       1 <0>        -0.1289
      8 S1         -6.0703   -8.8634   -0.3704 S.o2      1 <0>         2.6912
      9 O1         -7.1418   -8.1605   -0.9845 O.2       1 <0>        -0.9547
     10 O2         -5.5462  -10.0714   -0.9047 O.2       1 <0>        -0.9540
     11 C7         -4.7225   -7.7336   -0.2634 C.ar      1 <0>        -0.6936
     12 C8         -3.4271   -8.2106   -0.1831 C.ar      1 <0>         0.0002
     13 C9         -2.3684   -7.3276   -0.0991 C.ar      1 <0>        -0.1447
     14 C10        -2.6060   -5.9593   -0.0954 C.ar      1 <0>         0.2068
     15 C11        -3.9086   -5.4836   -0.1704 C.ar      1 <0>        -0.1642
     16 C12        -4.9624   -6.3717   -0.2603 C.ar      1 <0>        -0.0001
     17 N2         -1.5357   -5.0621   -0.0105 N.am      1 <0>        -0.6824
     18 C13        -0.3634   -5.3531   -0.6083 C.2       1 <0>         0.5407
     19 O3         -0.2083   -6.4281   -1.1482 O.2       1 <0>        -0.5007
     20 C14         0.7548   -4.3428   -0.6061 C.3       1 <0>        -0.1455
     21 S2          2.1886   -5.0257   -1.4827 S.3       1 <0>         0.0726
     22 C15         3.3933   -3.7429   -1.3939 C.2       1 <0>         0.1694
     23 N3          3.2371   -2.5779   -0.8136 N.2       1 <0>        -0.3043
     24 N4          4.4272   -1.8548   -0.9677 N.2       1 <0>        -0.3369
     25 C16         5.2710   -2.6013   -1.6368 C.2       1 <0>         0.4847
     26 N5          4.6548   -3.7876   -1.9179 N.pl3     1 <0>        -0.2659
     27 N6          5.2049   -4.8367   -2.5982 N.3       1 <0>        -0.7785
     28 N7          6.5653   -2.2483   -1.9967 N.pl3     1 <0>        -0.5794
     29 N8          7.0606   -1.0234   -1.6501 N.3       1 <0>        -0.5545
     30 H1         -9.8914  -10.6841    4.3771 H         1 <0>         0.0560
     31 H2         -8.7407  -12.0622    4.4355 H         1 <0>         0.0561
     32 H3         -9.7107  -11.7643    2.9532 H         1 <0>         0.0557
     33 H4         -7.5436   -9.9076    4.0853 H         1 <0>         0.0727
     34 H5         -9.1958   -9.7806    1.5011 H         1 <0>         0.0702
     35 H6         -9.4146   -8.7182    2.9330 H         1 <0>         0.0776
     36 H7         -8.0021   -7.6654    1.1192 H         1 <0>         0.0951
     37 H8         -7.1340   -7.8359    2.6825 H         1 <0>         0.0710
     38 H9         -5.3069  -10.9013    1.2464 H         1 <0>         0.0950
     39 H10        -5.3757   -9.9423    2.7637 H         1 <0>         0.0708
     40 H11        -6.6619  -12.0128    3.0709 H         1 <0>         0.0780
     41 H12        -7.6103  -11.6826    1.5815 H         1 <0>         0.0703
     42 H13        -3.2430   -9.2748   -0.1857 H         1 <0>         0.1431
     43 H14        -1.3569   -7.7008   -0.0368 H         1 <0>         0.1493
     44 H15        -4.0969   -4.4202   -0.1632 H         1 <0>         0.1385
     45 H16        -5.9753   -6.0023   -0.3235 H         1 <0>         0.1441
     46 H17        -1.6511   -4.1192    0.5442 H         1 <0>         0.4461
     47 H18         0.4201   -3.4243   -1.1104 H         1 <0>         0.1342
     48 H19         1.0363   -4.1096    0.4314 H         1 <0>         0.1344
     49 H20         6.2345   -4.7661   -2.9789 H         1 <0>         0.4366
     50 H21         4.6183   -5.7521   -2.7653 H         1 <0>         0.4478
     51 H22         7.1914   -2.9552   -2.5608 H         1 <0>         0.4252
     52 H23         8.0923   -0.9272   -2.0193 H         1 <0>         0.3587
     53 H24         6.4363   -0.2356   -2.0970 H         1 <0>         0.3337
@<TRIPOS>BOND
     1    1    2 1
     2    1   30 1
     3    1   31 1
     4    1   32 1
     5    2    7 1
     6    2    3 1
     7    2   33 1
     8    3    4 1
     9    3   34 1
    10    3   35 1
    11    4    5 1
    12    4   36 1
    13    4   37 1
    14    5    6 1
    15    5    8 1
    16    6    7 1
    17    6   38 1
    18    6   39 1
    19    7   40 1
    20    7   41 1
    21    8    9 2
    22    8   10 2
    23    8   11 1
    24   11   16 ar
    25   11   12 ar
    26   12   13 ar
    27   12   42 1
    28   13   14 ar
    29   13   43 1
    30   14   15 ar
    31   14   17 1
    32   15   16 ar
    33   15   44 1
    34   16   45 1
    35   17   18 am
    36   17   46 1
    37   18   19 2
    38   18   20 1
    39   20   21 1
    40   20   47 1
    41   20   48 1
    42   21   22 1
    43   22   26 1
    44   22   23 2
    45   23   24 1
    46   24   25 2
    47   25   26 1
    48   25   28 1
    49   26   27 1
    50   27   49 1
    51   27   50 1
    52   28   29 1
    53   28   51 1
    54   29   52 1
    55   29   53 1
@<TRIPOS>MOLECULE
ZINC01668769
   51    53     0     0     0
SMALL
USER_CHARGES

@<TRIPOS>ATOM
      1 C1         -0.0173    1.4248    0.0099 C.3       1 <0>         0.0260
      2 O1          0.0021   -0.0041    0.0020 O.3       1 <0>        -0.3099
      3 C2          0.6062   -0.6075   -1.0564 C.ar      1 <0>         0.1058
      4 C3          1.1729    0.1590   -2.0621 C.ar      1 <0>        -0.1773
      5 C4          1.7870   -0.4560   -3.1371 C.ar      1 <0>        -0.0154
      6 C5          1.8372   -1.8356   -3.2121 C.ar      1 <0>        -0.1243
      7 C6          1.2734   -2.6062   -2.2124 C.ar      1 <0>        -0.1035
      8 C7          0.6617   -1.9961   -1.1290 C.ar      1 <0>         0.0679
      9 O2          0.1119   -2.7526   -0.1417 O.3       1 <0>        -0.4888
     10 C8          2.4028    0.3792   -4.2300 C.3       1 <0>         0.0150
     11 H1          2.2641    1.4349   -3.9968 H         1 <0>         0.0976
     12 C9          3.8766    0.0784   -4.3144 C.ar      1 <0>        -0.0829
     13 C10         4.5767   -0.0558   -3.1216 C.ar      1 <0>        -0.0959
     14 C11         5.9323   -0.3260   -3.1283 C.ar      1 <0>         0.0763
     15 C12         6.6002   -0.4637   -4.3419 C.ar      1 <0>         0.1052
     16 C13         5.8995   -0.3318   -5.5261 C.ar      1 <0>        -0.1977
     17 C14         4.5360   -0.0638   -5.5147 C.ar      1 <0>        -0.0383
     18 C15         3.8349    0.0510   -6.8432 C.3       1 <0>        -0.0995
     19 C16         2.4891    0.7547   -6.6817 C.3       1 <0>         0.1484
     20 C17         1.7137    0.0615   -5.5554 C.3       1 <0>        -0.0616
     21 H2          1.7122   -1.0161   -5.7194 H         1 <0>         0.0971
     22 C18         0.2749    0.5810   -5.5258 C.3       1 <0>         0.0789
     23 O3         -0.4686   -0.1320   -4.5355 O.3       1 <0>        -0.5581
     24 C19         1.6974    0.6587   -7.9875 C.3       1 <0>         0.0458
     25 O4          2.4843    1.1788   -9.0610 O.3       1 <0>        -0.5719
     26 O5          2.7011    2.1276   -6.3466 O.3       1 <0>        -0.5474
     27 O6          7.9344   -0.7260   -4.3623 O.3       1 <0>        -0.3076
     28 C20         8.5509   -0.8540   -5.6451 C.3       1 <0>         0.0250
     29 O7          6.6096   -0.4562   -1.9562 O.3       1 <0>        -0.4859
     30 H3          1.0053    1.8021    0.0021 H         1 <0>         0.0549
     31 H4         -0.5445    1.7859   -0.8732 H         1 <0>         0.0545
     32 H5         -0.5275    1.7763    0.9067 H         1 <0>         0.0998
     33 H6          1.1344    1.2368   -2.0063 H         1 <0>         0.1265
     34 H7          2.3175   -2.3124   -4.0537 H         1 <0>         0.1195
     35 H8          1.3136   -3.6837   -2.2735 H         1 <0>         0.1310
     36 H9         -0.8162   -2.9794   -0.2906 H         1 <0>         0.3839
     37 H10         4.0571    0.0523   -2.1809 H         1 <0>         0.1341
     38 H11         6.4163   -0.4377   -6.4685 H         1 <0>         0.1312
     39 H12         4.4588    0.6221   -7.5307 H         1 <0>         0.0905
     40 H13         3.6720   -0.9467   -7.2510 H         1 <0>         0.0867
     41 H14         0.2773    1.6437   -5.2832 H         1 <0>         0.0544
     42 H15        -0.1852    0.4323   -6.5027 H         1 <0>         0.0461
     43 H16        -1.3919    0.1458   -4.4612 H         1 <0>         0.3758
     44 H17         1.4531   -0.3844   -8.1883 H         1 <0>         0.0575
     45 H18         0.7776    1.2366   -7.8980 H         1 <0>         0.0601
     46 H19         2.0441    1.1495   -9.9214 H         1 <0>         0.3862
     47 H20         3.2015    2.6218   -7.0103 H         1 <0>         0.3848
     48 H21         9.6134   -1.0621   -5.5185 H         1 <0>         0.1017
     49 H22         8.0832   -1.6720   -6.1930 H         1 <0>         0.0551
     50 H23         8.4264    0.0745   -6.2023 H         1 <0>         0.0557
     51 H24         6.6328   -1.3601   -1.6137 H         1 <0>         0.3868
@<TRIPOS>BOND
     1    1    2 1
     2    1   30 1
     3    1   31 1
     4    1   32 1
     5    2    3 1
     6    3    8 ar
     7    3    4 ar
     8    4    5 ar
     9    4   33 1
    10    5    6 ar
    11    5   10 1
    12    6    7 ar
    13    6   34 1
    14    7    8 ar
    15    7   35 1
    16    8    9 1
    17    9   36 1
    18   10   11 1
    19   10   20 1
    20   10   12 1
    21   12   17 ar
    22   12   13 ar
    23   13   14 ar
    24   13   37 1
    25   14   15 ar
    26   14   29 1
    27   15   16 ar
    28   15   27 1
    29   16   17 ar
    30   16   38 1
    31   17   18 1
    32   18   19 1
    33   18   39 1
    34   18   40 1
    35   19   20 1
    36   19   24 1
    37   19   26 1
    38   20   21 1
    39   20   22 1
    40   22   23 1
    41   22   41 1
    42   22   42 1
    43   23   43 1
    44   24   25 1
    45   24   44 1
    46   24   45 1
    47   25   46 1
    48   26   47 1
    49   27   28 1
    50   28   48 1
    51   28   49 1
    52   28   50 1
    53   29   51 1
@<TRIPOS>MOLECULE
ZINC16227655
   44    46     0     0     0
SMALL
NO_CHARGES

@<TRIPOS>ATOM
      1 C1          0.2336    0.7621    0.0959 C.3       1 <0>         0.0157
      2 O1          0.1094   -0.4960    0.7622 O.3       1 <0>        -0.2768
      3 C2         -1.1332   -1.0418    0.8228 C.ar      1 <0>         0.2126
      4 C3         -2.2094   -0.3793    0.2461 C.ar      1 <0>        -0.2146
      5 C4         -3.4714   -0.9291    0.3051 C.ar      1 <0>         0.0082
      6 C5         -3.6679   -2.1552    0.9466 C.ar      1 <0>        -0.0956
      7 C6         -2.5825   -2.8179    1.5252 C.ar      1 <0>         0.0126
      8 C7         -1.3226   -2.2630    1.4563 C.ar      1 <0>        -0.0869
      9 N1         -0.1708   -2.9672    2.0632 N.pl3     1 <0>         0.0389
     10 O2         -0.3346   -4.0304    2.6149 O.2       1 <0>        -0.1699
     11 O3          0.9339   -2.4791    2.0073 O.3       1 <0>        -0.1294
     12 C8         -5.0164   -2.7472    1.0128 C.2       1 <0>         0.1304
     13 N2         -6.0236   -2.1296    0.4749 N.2       1 <0>        -0.2671
     14 N3         -7.3051   -2.6923    0.5378 N.pl3     1 <0>        -0.5461
     15 C9         -8.3742   -2.0367   -0.0332 C.cat     1 <0>         0.4624
     16 N4         -8.1933   -0.8934   -0.6318 N.pl3     1 <0>        -0.7401
     17 C10        -9.7286   -2.6313    0.0333 C.ar      1 <0>        -0.0125
     18 C11       -10.1374   -3.3173    1.1982 C.ar      1 <0>         0.3914
     19 N5        -11.3428   -3.8515    1.2700 N.ar      1 <0>        -0.1568
     20 O4        -11.7473   -4.5377    2.4407 O.3       1 <0>        -0.5634
     21 C12       -12.1816   -3.7416    0.2317 C.ar      1 <0>         0.0319
     22 C13       -13.4699   -4.3005    0.2825 C.ar      1 <0>        -0.0691
     23 C14       -14.3036   -4.1747   -0.7859 C.ar      1 <0>        -0.1387
     24 C15       -13.8994   -3.4977   -1.9355 C.ar      1 <0>        -0.0813
     25 C16       -12.6600   -2.9434   -2.0218 C.ar      1 <0>        -0.1182
     26 C17       -11.7696   -3.0524   -0.9377 C.ar      1 <0>         0.1485
     27 N6        -10.5493   -2.5122   -0.9955 N.ar      1 <0>        -0.4487
     28 N7         -9.2675   -3.4309    2.2729 N.pl3     1 <0>        -0.8387
     29 H1          1.2746    1.0844    0.1192 H         1 <0>         0.1165
     30 H2         -0.0918    0.6588   -0.9392 H         1 <0>         0.0663
     31 H3         -0.3874    1.5029    0.5997 H         1 <0>         0.0662
     32 H4         -2.0567    0.5683   -0.2490 H         1 <0>         0.1583
     33 H5         -4.3076   -0.4132   -0.1432 H         1 <0>         0.1534
     34 H6         -2.7297   -3.7654    2.0222 H         1 <0>         0.1673
     35 H7         -5.1663   -3.6948    1.5089 H         1 <0>         0.1361
     36 H8         -7.4398   -3.5433    0.9833 H         1 <0>         0.4108
     37 H9         -8.9297   -0.4684   -1.0985 H         1 <0>         0.4344
     38 H10       -13.7972   -4.8282    1.1661 H         1 <0>         0.1422
     39 H11       -15.2928   -4.6061   -0.7426 H         1 <0>         0.1309
     40 H12       -14.5799   -3.4122   -2.7698 H         1 <0>         0.1316
     41 H13       -12.3605   -2.4221   -2.9190 H         1 <0>         0.1391
     42 H14        -8.4445   -2.9177    2.2870 H         1 <0>         0.4044
     43 H15        -9.4823   -4.0235    3.0102 H         1 <0>         0.4232
     44 H16        -7.3221   -0.4673   -0.6105 H         1 <0>         0.4209
@<TRIPOS>BOND
     1    1    2 1
     2    1   29 1
     3    1   30 1
     4    1   31 1
     5    2    3 1
     6    3    8 ar
     7    3    4 ar
     8    4    5 ar
     9    4   32 1
    10    5    6 ar
    11    5   33 1
    12    6    7 ar
    13    6   12 1
    14    7    8 ar
    15    7   34 1
    16    8    9 1
    17    9   10 2
    18    9   11 1
    19   12   13 2
    20   12   35 1
    21   13   14 1
    22   14   15 1
    23   14   36 1
    24   15   16 2
    25   15   17 1
    26   16   37 1
    27   16   44 1
    28   17   27 ar
    29   17   18 ar
    30   18   19 ar
    31   18   28 1
    32   19   20 1
    33   19   21 ar
    34   21   26 ar
    35   21   22 ar
    36   22   23 ar
    37   22   38 1
    38   23   24 ar
    39   23   39 1
    40   24   25 ar
    41   24   40 1
    42   25   26 ar
    43   25   41 1
    44   26   27 ar
    45   28   42 1
    46   28   43 1
@<TRIPOS>MOLECULE
ZINC02201373
   51    53     0     0     0
SMALL
USER_CHARGES

@<TRIPOS>ATOM
      1 C1          4.8567   -4.6021   -4.8338 C.3       1 <0>        -0.1181
      2 C2          3.7625   -4.7752   -3.8122 C.ar      1 <0>        -0.0719
      3 C3          2.4382   -4.7648   -4.2123 C.ar      1 <0>        -0.1278
      4 C4          1.4321   -4.9229   -3.2813 C.ar      1 <0>        -0.0929
      5 C5          1.7523   -5.0937   -1.9353 C.ar      1 <0>        -0.0375
      6 C6          3.0880   -5.1038   -1.5381 C.ar      1 <0>        -0.0458
      7 C7          4.0862   -4.9496   -2.4789 C.ar      1 <0>        -0.1243
      8 C8          3.4421   -5.2880   -0.0849 C.3       1 <0>        -0.1068
      9 C9          0.6752   -5.2636   -0.9297 C.2       1 <0>         0.0981
     10 C10        -0.4015   -4.4186   -0.9219 C.2       1 <0>        -0.1836
     11 S1         -1.3332   -5.0798    0.4536 S.3       1 <0>         0.0227
     12 C11        -0.2044   -6.4008    0.8732 C.2       1 <0>         0.1643
     13 N1          0.7443   -6.2358   -0.0366 N.2       1 <0>        -0.4806
     14 C12        -0.3053   -7.4103    1.9449 C.2       1 <0>        -0.1132
     15 C13        -0.2324   -8.7368    1.6405 C.2       1 <0>         0.2518
     16 N2         -0.1810   -9.1363    0.3348 N.pl3     1 <0>        -0.6304
     17 C14        -0.2202  -10.4966    0.0185 C.ar      1 <0>         0.2139
     18 C15        -0.3170  -11.4442    1.0300 C.ar      1 <0>        -0.1892
     19 C16        -0.3559  -12.7878    0.7137 C.ar      1 <0>         0.0232
     20 C17        -0.2981  -13.1907   -0.6080 C.ar      1 <0>        -0.6630
     21 C18        -0.2012  -12.2503   -1.6173 C.ar      1 <0>         0.0226
     22 C19        -0.1680  -10.9047   -1.3085 C.ar      1 <0>        -0.1767
     23 S2         -0.3475  -14.9063   -1.0069 S.o2      1 <0>         2.6518
     24 O1          0.2708  -15.0454   -2.2787 O.2       1 <0>        -0.9877
     25 O2          0.1105  -15.6040    0.1432 O.2       1 <0>        -0.9874
     26 N3         -1.9392  -15.3168   -1.2069 N.2       1 <0>        -1.0534
     27 C20        -2.2629  -16.5423   -1.5110 C.2       1 <0>         0.7496
     28 N4         -1.2829  -17.4940   -1.6656 N.pl3     1 <0>        -0.8793
     29 N5         -3.5844  -16.8831   -1.6771 N.pl3     1 <0>        -0.8169
     30 C21        -0.4797   -6.9962    3.3045 C.1       1 <0>         0.2699
     31 N6         -0.6181   -6.6677    4.3832 N.1       1 <0>        -0.4105
     32 H1          5.1505   -5.5779   -5.2205 H         1 <0>         0.0726
     33 H2          4.4941   -3.9809   -5.6528 H         1 <0>         0.0679
     34 H3          5.7170   -4.1222   -4.3671 H         1 <0>         0.0675
     35 H4          2.1913   -4.6324   -5.2554 H         1 <0>         0.1251
     36 H5          0.3986   -4.9139   -3.5946 H         1 <0>         0.1239
     37 H6          5.1218   -4.9609   -2.1727 H         1 <0>         0.1244
     38 H7          3.6329   -6.3430    0.1117 H         1 <0>         0.0757
     39 H8          4.3350   -4.7078    0.1478 H         1 <0>         0.0614
     40 H9          2.6146   -4.9464    0.5368 H         1 <0>         0.0640
     41 H10        -0.6262   -3.5829   -1.5680 H         1 <0>         0.2001
     42 H11        -0.2153   -9.4721    2.4314 H         1 <0>         0.1800
     43 H12        -0.1174   -8.4756   -0.3725 H         1 <0>         0.4227
     44 H13        -0.3615  -11.1302    2.0624 H         1 <0>         0.1409
     45 H14        -0.4313  -13.5249    1.4995 H         1 <0>         0.1482
     46 H15        -0.1555  -12.5684   -2.6483 H         1 <0>         0.1474
     47 H16        -0.0968  -10.1706   -2.0975 H         1 <0>         0.1388
     48 H17        -0.3505  -17.2535   -1.5484 H         1 <0>         0.4126
     49 H18        -4.2759  -16.2117   -1.5680 H         1 <0>         0.4298
     50 H19        -3.8253  -17.7951   -1.9034 H         1 <0>         0.4121
     51 H20        -1.5238  -18.4059   -1.8919 H         1 <0>         0.4140
@<TRIPOS>BOND
     1    1    2 1
     2    1   32 1
     3    1   33 1
     4    1   34 1
     5    2    7 ar
     6    2    3 ar
     7    3    4 ar
     8    3   35 1
     9    4    5 ar
    10    4   36 1
    11    5    6 ar
    12    5    9 1
    13    6    7 ar
    14    6    8 1
    15    7   37 1
    16    8   38 1
    17    8   39 1
    18    8   40 1
    19    9   13 1
    20    9   10 2
    21   10   11 1
    22   10   41 1
    23   11   12 1
    24   12   13 2
    25   12   14 1
    26   14   15 2
    27   14   30 1
    28   15   16 1
    29   15   42 1
    30   16   17 1
    31   16   43 1
    32   17   22 ar
    33   17   18 ar
    34   18   19 ar
    35   18   44 1
    36   19   20 ar
    37   19   45 1
    38   20   21 ar
    39   20   23 1
    40   21   22 ar
    41   21   46 1
    42   22   47 1
    43   23   24 2
    44   23   25 2
    45   23   26 1
    46   26   27 2
    47   27   28 1
    48   27   29 1
    49   28   48 1
    50   28   51 1
    51   29   49 1
    52   29   50 1
    53   30   31 3
@<TRIPOS>MOLECULE
ZINC03840141
   58    60     0     0     0
SMALL
USER_CHARGES
N-[5,6-dihydroxy-3-[(2-oxo-3-piperidyl)carbamoyl]-1-cyclohex-2-enyl]-2-methoxy-4-methylsulfanyl-benzamide
@<TRIPOS>ATOM
      1 C1         -5.2076    1.7502    4.3189 C.3       1 <0>         0.0180
      2 O1         -5.6146    0.9338    3.2189 O.3       1 <0>        -0.2756
      3 C2         -4.6913    0.6958    2.2538 C.ar      1 <0>         0.2102
      4 C3         -3.4194    1.2291    2.3618 C.ar      1 <0>        -0.2034
      5 C4         -2.4796    0.9857    1.3667 C.ar      1 <0>        -0.0178
      6 C5         -2.8112    0.1964    0.2659 C.ar      1 <0>        -0.1821
      7 C6         -4.0613   -0.3384    0.1527 C.ar      1 <0>        -0.0234
      8 C7         -5.0201   -0.0978    1.1432 C.ar      1 <0>        -0.1812
      9 C8         -6.3688   -0.6744    1.0208 C.2       1 <0>         0.5666
     10 O2         -7.2007   -0.4639    1.8829 O.2       1 <0>        -0.5120
     11 N1         -6.6821   -1.4354   -0.0465 N.am      1 <0>        -0.7124
     12 C9         -8.0245   -2.0093   -0.1683 C.3       1 <0>         0.1860
     13 H1         -8.7544   -1.3109    0.2412 H         1 <0>         0.1189
     14 C10        -8.0857   -3.2988    0.5974 C.2       1 <0>        -0.0724
     15 C11        -8.0449   -4.4869    0.0340 C.2       1 <0>        -0.1589
     16 C12        -7.9410   -4.7051   -1.4474 C.3       1 <0>        -0.1179
     17 C13        -7.4698   -3.4231   -2.1369 C.3       1 <0>         0.0759
     18 H2         -6.4253   -3.2358   -1.8874 H         1 <0>         0.0667
     19 C14        -8.3363   -2.2613   -1.6449 C.3       1 <0>         0.1087
     20 H3         -9.3900   -2.5162   -1.7583 H         1 <0>         0.0827
     21 O3         -8.0376   -1.0890   -2.4055 O.3       1 <0>        -0.5502
     22 O4         -7.6079   -3.5607   -3.5525 O.3       1 <0>        -0.5604
     23 C15        -8.1040   -5.6699    0.9062 C.2       1 <0>         0.5579
     24 O5         -8.1881   -5.5329    2.1117 O.2       1 <0>        -0.5144
     25 N2         -8.0650   -6.9055    0.3695 N.am      1 <0>        -0.7148
     26 C16        -8.1238   -8.0837    1.2382 C.3       1 <0>         0.1364
     27 H4         -8.7719   -7.8741    2.0892 H         1 <0>         0.1214
     28 C17        -8.6888   -9.2684    0.4507 C.3       1 <0>        -0.1302
     29 C18        -8.4870  -10.5421    1.2804 C.3       1 <0>        -0.1355
     30 C19        -6.9890  -10.8367    1.3691 C.3       1 <0>         0.1065
     31 N3         -6.2606   -9.6507    1.8017 N.am      1 <0>        -0.7214
     32 C20        -6.7431   -8.4096    1.7310 C.2       1 <0>         0.5009
     33 O6         -6.0290   -7.4951    2.0840 O.2       1 <0>        -0.5290
     34 S1         -0.8618    1.6708    1.5005 S.3       1 <0>        -0.1002
     35 C21        -0.0127    1.0858    0.0080 C.3       1 <0>        -0.1477
     36 H5         -4.3660    1.2805    4.8281 H         1 <0>         0.0583
     37 H6         -4.9081    2.7317    3.9516 H         1 <0>         0.0584
     38 H7         -6.0382    1.8609    5.0160 H         1 <0>         0.1062
     39 H8         -3.1583    1.8368    3.2155 H         1 <0>         0.1423
     40 H9         -2.0748    0.0078   -0.5012 H         1 <0>         0.1312
     41 H10        -4.3111   -0.9487   -0.7026 H         1 <0>         0.1330
     42 H11        -6.0187   -1.6032   -0.7340 H         1 <0>         0.3999
     43 H12        -8.1677   -3.2484    1.6731 H         1 <0>         0.1412
     44 H13        -7.2278   -5.5052   -1.6456 H         1 <0>         0.0820
     45 H14        -8.9174   -4.9887   -1.8402 H         1 <0>         0.0961
     46 H15        -8.2124   -1.1794   -3.3523 H         1 <0>         0.3901
     47 H16        -7.0962   -4.2899   -3.9286 H         1 <0>         0.3865
     48 H17        -7.9979   -7.0148   -0.5920 H         1 <0>         0.4023
     49 H18        -9.7523   -9.1141    0.2683 H         1 <0>         0.0877
     50 H19        -8.1629   -9.3618   -0.4995 H         1 <0>         0.0778
     51 H20        -8.9960  -11.3770    0.7988 H         1 <0>         0.0942
     52 H21        -8.8909  -10.3963    2.2822 H         1 <0>         0.0785
     53 H22        -6.6242  -11.1464    0.3897 H         1 <0>         0.0686
     54 H23        -6.8250  -11.6416    2.0856 H         1 <0>         0.0809
     55 H24        -5.3690   -9.7719    2.1640 H         1 <0>         0.4008
     56 H25         0.0021   -0.0041    0.0020 H         1 <0>         0.0874
     57 H26         1.0099    1.4631    0.0003 H         1 <0>         0.1128
     58 H27        -0.5399    1.4469   -0.8751 H         1 <0>         0.0878
@<TRIPOS>BOND
     1    1    2 1
     2    1   36 1
     3    1   37 1
     4    1   38 1
     5    2    3 1
     6    3    8 ar
     7    3    4 ar
     8    4    5 ar
     9    4   39 1
    10    5    6 ar
    11    5   34 1
    12    6    7 ar
    13    6   40 1
    14    7    8 ar
    15    7   41 1
    16    8    9 1
    17    9   10 2
    18    9   11 am
    19   11   12 1
    20   11   42 1
    21   12   13 1
    22   12   19 1
    23   12   14 1
    24   14   15 2
    25   14   43 1
    26   15   16 1
    27   15   23 1
    28   16   17 1
    29   16   44 1
    30   16   45 1
    31   17   18 1
    32   17   19 1
    33   17   22 1
    34   19   20 1
    35   19   21 1
    36   21   46 1
    37   22   47 1
    38   23   24 2
    39   23   25 am
    40   25   26 1
    41   25   48 1
    42   26   27 1
    43   26   32 1
    44   26   28 1
    45   28   29 1
    46   28   49 1
    47   28   50 1
    48   29   30 1
    49   29   51 1
    50   29   52 1
    51   30   31 1
    52   30   53 1
    53   30   54 1
    54   31   32 am
    55   31   55 1
    56   32   33 2
    57   34   35 1
    58   35   56 1
    59   35   57 1
    60   35   58 1
@<TRIPOS>MOLECULE
ZINC04258482
   56    59     0     0     0
SMALL
USER_CHARGES
2-(2,5-dioxabicyclo[4.4.0]deca-6,8,10-trien-8-yl)-1-[2-hydroxy-4-[3,4,5-trihydroxy-6-(hydroxymethyl)tetrahydropyran-2-yl]oxy-phenyl]-ethanone
@<TRIPOS>ATOM
      1 C1          1.2077   -0.6803   -0.0160 C.ar      1 <0>        -0.1008
      2 C2          0.0021   -0.0041    0.0020 C.ar      1 <0>        -0.1105
      3 C3         -0.0167    1.3824    0.0096 C.ar      1 <0>         0.0506
      4 C4          1.1798    2.0900    0.0020 C.ar      1 <0>         0.0525
      5 C5          2.3856    1.4056   -0.0162 C.ar      1 <0>        -0.1008
      6 C6          2.3972    0.0233   -0.0258 C.ar      1 <0>        -0.0720
      7 C7          3.7093   -0.7177   -0.0465 C.3       1 <0>        -0.1130
      8 C8          4.1295   -0.9555   -1.4741 C.2       1 <0>         0.3963
      9 O1          3.4319   -0.5618   -2.3854 O.2       1 <0>        -0.4290
     10 C9          5.3802   -1.6619   -1.7615 C.ar      1 <0>        -0.2343
     11 C10         6.1916   -2.1132   -0.7114 C.ar      1 <0>        -0.0186
     12 C11         7.3536   -2.7751   -0.9815 C.ar      1 <0>        -0.2058
     13 C12         7.7479   -2.9982   -2.2986 C.ar      1 <0>         0.1757
     14 C13         6.9600   -2.5542   -3.3507 C.ar      1 <0>        -0.1947
     15 C14         5.7757   -1.8857   -3.0925 C.ar      1 <0>         0.2064
     16 O2          5.0012   -1.4497   -4.1167 O.3       1 <0>        -0.4767
     17 O3          8.9080   -3.6535   -2.5539 O.3       1 <0>        -0.3155
     18 C15         9.6719   -4.0840   -1.4255 C.3       1 <0>         0.2138
     19 H1          9.0471   -4.6971   -0.7761 H         1 <0>         0.1191
     20 C16        10.8713   -4.9060   -1.9045 C.3       1 <0>         0.0658
     21 H2         11.4311   -5.2697   -1.0428 H         1 <0>         0.1028
     22 C17        11.7755   -4.0205   -2.7674 C.3       1 <0>         0.0839
     23 H3         11.2305   -3.6979   -3.6546 H         1 <0>         0.0817
     24 C18        12.1991   -2.7947   -1.9524 C.3       1 <0>         0.0899
     25 H4         12.7977   -2.1313   -2.5767 H         1 <0>         0.0842
     26 C19        10.9484   -2.0541   -1.4716 C.3       1 <0>         0.1013
     27 H5         10.3825   -1.6992   -2.3329 H         1 <0>         0.0889
     28 O4         10.1367   -2.9430   -0.7014 O.3       1 <0>        -0.3531
     29 C20        11.3623   -0.8621   -0.6064 C.3       1 <0>         0.0892
     30 O5         10.2033   -0.1041   -0.2539 O.3       1 <0>        -0.5656
     31 O6         12.9703   -3.2141   -0.8249 O.3       1 <0>        -0.5491
     32 O7         12.9349   -4.7585   -3.1585 O.3       1 <0>        -0.5593
     33 O8         10.4112   -6.0160   -2.6780 O.3       1 <0>        -0.5508
     34 O9          1.1841    3.4510    0.0176 O.3       1 <0>        -0.3078
     35 C21        -0.0395    4.1025   -0.3404 C.3       1 <0>         0.0202
     36 C22        -1.1883    3.4128    0.4076 C.3       1 <0>         0.0202
     37 O10        -1.2114    2.0344    0.0189 O.3       1 <0>        -0.3074
     38 H6          1.2200   -1.7602   -0.0221 H         1 <0>         0.1314
     39 H7         -0.9261   -0.5562    0.0098 H         1 <0>         0.1359
     40 H8          3.3165    1.9531   -0.0237 H         1 <0>         0.1324
     41 H9          4.4067   -0.1737    0.4201 H         1 <0>         0.0980
     42 H10         3.5942   -1.6746    0.4625 H         1 <0>         0.1098
     43 H11         5.8947   -1.9403    0.3125 H         1 <0>         0.1391
     44 H12         7.9737   -3.1242   -0.1692 H         1 <0>         0.1423
     45 H13         7.2707   -2.7295   -4.3701 H         1 <0>         0.1421
     46 H14         5.2105   -0.5537   -4.4143 H         1 <0>         0.3995
     47 H15        11.8500   -1.2225    0.2994 H         1 <0>         0.0686
     48 H16        12.0535   -0.2306   -1.1645 H         1 <0>         0.0638
     49 H17        10.3911    0.6688    0.2960 H         1 <0>         0.3841
     50 H18        13.7768   -3.6946   -1.0567 H         1 <0>         0.3895
     51 H19        12.7400   -5.5536   -3.6733 H         1 <0>         0.3951
     52 H20         9.8283   -6.6175   -2.1948 H         1 <0>         0.3883
     53 H21         0.0064    5.1535   -0.0548 H         1 <0>         0.1229
     54 H22        -0.1986    4.0206   -1.4157 H         1 <0>         0.0782
     55 H23        -1.0259    3.4903    1.4826 H         1 <0>         0.0782
     56 H24        -2.1347    3.8846    0.1433 H         1 <0>         0.1229
@<TRIPOS>BOND
     1    1    6 ar
     2    1    2 ar
     3    1   38 1
     4    2    3 ar
     5    2   39 1
     6    3   37 1
     7    3    4 ar
     8    4    5 ar
     9    4   34 1
    10    5    6 ar
    11    5   40 1
    12    6    7 1
    13    7    8 1
    14    7   41 1
    15    7   42 1
    16    8    9 2
    17    8   10 1
    18   10   15 ar
    19   10   11 ar
    20   11   12 ar
    21   11   43 1
    22   12   13 ar
    23   12   44 1
    24   13   14 ar
    25   13   17 1
    26   14   15 ar
    27   14   45 1
    28   15   16 1
    29   16   46 1
    30   17   18 1
    31   18   19 1
    32   18   28 1
    33   18   20 1
    34   20   21 1
    35   20   22 1
    36   20   33 1
    37   22   23 1
    38   22   24 1
    39   22   32 1
    40   24   25 1
    41   24   26 1
    42   24   31 1
    43   26   27 1
    44   26   28 1
    45   26   29 1
    46   29   30 1
    47   29   47 1
    48   29   48 1
    49   30   49 1
    50   31   50 1
    51   32   51 1
    52   33   52 1
    53   34   35 1
    54   35   36 1
    55   35   53 1
    56   35   54 1
    57   36   37 1
    58   36   55 1
    59   36   56 1
@<TRIPOS>MOLECULE
ZINC16266980
   59    61     0     0     0
SMALL
USER_CHARGES
3-[(3,4-dihydroxyphenyl)-[4-hydroxy-1-(2-hydroxyethyl)-6-methyl-2-oxo-3-pyridyl]methyl]-4-hydroxy-1-(2-hydroxyethyl)-6-methyl-pyridin-2-one
@<TRIPOS>ATOM
      1 C1         -3.8093    1.5121    1.0012 C.3       1 <0>        -0.1249
      2 C2         -3.4720    0.7728   -0.2680 C.2       1 <0>         0.2058
      3 C3         -2.2332    0.2611   -0.4316 C.2       1 <0>        -0.2995
      4 C4         -1.9103   -0.4261   -1.6187 C.2       1 <0>         0.2785
      5 C5         -2.8786   -0.5671   -2.5955 C.2       1 <0>        -0.2791
      6 C6         -4.1501   -0.0239   -2.3778 C.2       1 <0>         0.5381
      7 O1         -5.0163   -0.1394   -3.2308 O.2       1 <0>        -0.5551
      8 N1         -4.4200    0.6259   -1.2304 N.am      1 <0>        -0.4988
      9 C7         -5.7557    1.1890   -1.0182 C.3       1 <0>         0.0890
     10 C8         -6.6779    0.1119   -0.4434 C.3       1 <0>         0.0629
     11 O2         -6.2167   -0.2668    0.8550 O.3       1 <0>        -0.5708
     12 C9         -2.5689   -1.2955   -3.8779 C.3       1 <0>         0.1148
     13 C10        -1.0753   -1.3768   -4.0614 C.ar      1 <0>        -0.0226
     14 C11        -0.3426   -0.2237   -4.2732 C.ar      1 <0>        -0.0979
     15 C12         1.0284   -0.2924   -4.4364 C.ar      1 <0>        -0.1333
     16 C13         1.6698   -1.5201   -4.3992 C.ar      1 <0>         0.0652
     17 C14         0.9316   -2.6813   -4.1917 C.ar      1 <0>         0.0782
     18 C15        -0.4416   -2.6048   -4.0232 C.ar      1 <0>        -0.0882
     19 O3          1.5566   -3.8885   -4.1539 O.3       1 <0>        -0.4876
     20 O4          3.0177   -1.5901   -4.5656 O.3       1 <0>        -0.4922
     21 C16        -3.1440   -2.6871   -3.8167 C.2       1 <0>        -0.2531
     22 C17        -3.9277   -3.1672   -4.8495 C.2       1 <0>         0.2281
     23 C18        -4.4455   -4.4749   -4.7626 C.2       1 <0>        -0.2948
     24 C19        -4.1799   -5.2311   -3.6759 C.2       1 <0>         0.1864
     25 N2         -3.4130   -4.7506   -2.6623 N.am      1 <0>        -0.5008
     26 C20        -2.8965   -3.5086   -2.7107 C.2       1 <0>         0.5418
     27 O5         -2.2100   -3.0978   -1.7880 O.2       1 <0>        -0.5051
     28 C21        -3.1446   -5.5978   -1.4976 C.3       1 <0>         0.0885
     29 C22        -1.9492   -6.5062   -1.7925 C.3       1 <0>         0.0599
     30 O6         -0.7749   -5.7092   -1.9589 O.3       1 <0>        -0.5475
     31 C23        -4.7420   -6.6265   -3.5858 C.3       1 <0>        -0.1315
     32 O7         -4.1897   -2.3942   -5.9305 O.3       1 <0>        -0.4547
     33 O8         -0.6704   -0.9403   -1.8002 O.3       1 <0>        -0.4216
     34 H1         -4.2830    0.8279    1.7052 H         1 <0>         0.1003
     35 H2         -2.8964    1.9125    1.4420 H         1 <0>         0.0846
     36 H3         -4.4926    2.3305    0.7743 H         1 <0>         0.0768
     37 H4         -1.4907    0.3818    0.3434 H         1 <0>         0.1444
     38 H5         -6.1567    1.5413   -1.9685 H         1 <0>         0.1108
     39 H6         -5.6915    2.0231   -0.3194 H         1 <0>         0.1003
     40 H7         -6.6725   -0.7587   -1.0992 H         1 <0>         0.0545
     41 H8         -7.6922    0.5041   -0.3686 H         1 <0>         0.0633
     42 H9         -6.7553   -0.9479    1.2805 H         1 <0>         0.3818
     43 H10        -3.0093   -0.7570   -4.7171 H         1 <0>         0.0969
     44 H11        -0.8420    0.7334   -4.3072 H         1 <0>         0.1183
     45 H12         1.5990    0.6103   -4.5977 H         1 <0>         0.1242
     46 H13        -1.0169   -3.5046   -3.8623 H         1 <0>         0.1254
     47 H14         1.6256   -4.3228   -5.0152 H         1 <0>         0.3768
     48 H15         3.2955   -1.6949   -5.4859 H         1 <0>         0.3800
     49 H16        -5.0565   -4.8696   -5.5609 H         1 <0>         0.1471
     50 H17        -2.9197   -4.9698   -0.6356 H         1 <0>         0.1097
     51 H18        -4.0212   -6.2090   -1.2831 H         1 <0>         0.0987
     52 H19        -1.8046   -7.1973   -0.9621 H         1 <0>         0.0600
     53 H20        -2.1381   -7.0701   -2.7059 H         1 <0>         0.0462
     54 H21         0.0237   -6.2203   -2.1489 H         1 <0>         0.3789
     55 H22        -5.7087   -6.5970   -3.0831 H         1 <0>         0.0902
     56 H23        -4.8665   -7.0335   -4.5893 H         1 <0>         0.0922
     57 H24        -4.0573   -7.2581   -3.0199 H         1 <0>         0.0795
     58 H25        -4.7464   -2.8229   -6.5949 H         1 <0>         0.3985
     59 H26        -0.0689   -0.7875   -1.0587 H         1 <0>         0.3825
@<TRIPOS>BOND
     1    1    2 1
     2    1   34 1
     3    1   35 1
     4    1   36 1
     5    2    8 1
     6    2    3 2
     7    3    4 1
     8    3   37 1
     9    4    5 2
    10    4   33 1
    11    5    6 1
    12    5   12 1
    13    6    7 2
    14    6    8 am
    15    8    9 1
    16    9   10 1
    17    9   38 1
    18    9   39 1
    19   10   11 1
    20   10   40 1
    21   10   41 1
    22   11   42 1
    23   12   13 1
    24   12   21 1
    25   12   43 1
    26   13   18 ar
    27   13   14 ar
    28   14   15 ar
    29   14   44 1
    30   15   16 ar
    31   15   45 1
    32   16   17 ar
    33   16   20 1
    34   17   18 ar
    35   17   19 1
    36   18   46 1
    37   19   47 1
    38   20   48 1
    39   21   26 1
    40   21   22 2
    41   22   23 1
    42   22   32 1
    43   23   24 2
    44   23   49 1
    45   24   25 1
    46   24   31 1
    47   25   26 am
    48   25   28 1
    49   26   27 2
    50   28   29 1
    51   28   50 1
    52   28   51 1
    53   29   30 1
    54   29   52 1
    55   29   53 1
    56   30   54 1
    57   31   55 1
    58   31   56 1
    59   31   57 1
    60   32   58 1
    61   33   59 1
@<TRIPOS>MOLECULE
ZINC35074963
   59    63     0     0     0
SMALL
USER_CHARGES

@<TRIPOS>ATOM
      1 C1          0.4844    1.3576    0.9462 C.2       1 <0>         0.1641
      2 C2          1.1518    2.0525   -0.0045 C.2       1 <0>         0.0030
      3 C3          1.8492    1.3402   -1.0166 C.2       1 <0>         0.5510
      4 O1          2.4578    1.9415   -1.8833 O.2       1 <0>        -0.4811
      5 N1          1.8313   -0.0079   -1.0083 N.am      1 <0>        -0.6546
      6 H1          2.3053   -0.5009   -1.6962 H         1 <0>         0.4339
      7 C4          1.1598   -0.6732   -0.0505 C.2       1 <0>         0.6995
      8 O2          1.1546   -1.8893   -0.0581 O.2       1 <0>        -0.5267
      9 N2          0.4939   -0.0143    0.9149 N.am      1 <0>        -0.5222
     10 C5         -0.2278   -0.7685    1.9428 C.3       1 <0>         0.3188
     11 H2         -0.6242   -0.0915    2.6995 H         1 <0>         0.1312
     12 C6         -1.3748   -1.5895    1.3017 C.3       1 <0>         0.0740
     13 H3         -1.0774   -1.9895    0.3323 H         1 <0>         0.1068
     14 C7         -1.5449   -2.7250    2.3474 C.3       1 <0>         0.0478
     15 H4         -1.9307   -3.6300    1.8782 H         1 <0>         0.0942
     16 C8         -0.0971   -2.9361    2.8402 C.3       1 <0>         0.0602
     17 H5          0.3505   -3.7833    2.3208 H         1 <0>         0.1059
     18 O3          0.6390   -1.7408    2.5485 O.3       1 <0>        -0.3400
     19 C9         -0.0944   -3.1920    4.3487 C.3       1 <0>         0.0649
     20 O4          1.2334   -3.5011    4.7770 O.3       1 <0>        -0.5613
     21 O5         -2.3950   -2.3077    3.4176 O.3       1 <0>        -0.5401
     22 O6         -2.5665   -0.8089    1.1894 O.3       1 <0>        -0.5367
     23 N3          1.1544    3.4597    0.0092 N.am      1 <0>        -0.6691
     24 C10         2.3195    4.1305    0.1034 C.2       1 <0>         0.7109
     25 O7          3.3733    3.5237    0.0906 O.2       1 <0>        -0.5556
     26 N4          2.3167    5.4739    0.2117 N.am      1 <0>        -0.7366
     27 C11         3.5832    6.2032    0.3141 C.3       1 <0>         0.2039
     28 C12         4.3430    5.7337    1.5564 C.3       1 <0>        -0.1222
     29 C13         5.6657    6.4953    1.6633 C.3       1 <0>        -0.0824
     30 C14         5.3832    7.9949    1.7747 C.3       1 <0>        -0.1111
     31 C15         4.6234    8.4643    0.5324 C.3       1 <0>        -0.0798
     32 C16         3.3007    7.7027    0.4254 C.3       1 <0>        -0.1139
     33 C17         5.4688    8.1958   -0.7142 C.3       1 <0>        -0.1115
     34 C18         5.7513    6.6962   -0.8256 C.3       1 <0>        -0.0827
     35 C19         6.5111    6.2267    0.4167 C.3       1 <0>        -0.1094
     36 C20         4.4286    5.9346   -0.9325 C.3       1 <0>        -0.1228
     37 H6         -0.0486    1.8796    1.7272 H         1 <0>         0.1813
     38 H7         -0.4459   -2.3010    4.8690 H         1 <0>         0.0629
     39 H8         -0.7539   -4.0296    4.5763 H         1 <0>         0.0586
     40 H9          1.3103   -3.6754    5.7251 H         1 <0>         0.3833
     41 H10        -2.5323   -2.9822    4.0967 H         1 <0>         0.3837
     42 H11        -3.3110   -1.2822    0.7935 H         1 <0>         0.3916
     43 H12         0.3176    3.9468   -0.0492 H         1 <0>         0.4070
     44 H13         1.4762    5.9580    0.2219 H         1 <0>         0.3947
     45 H14         3.7408    5.9250    2.4445 H         1 <0>         0.0581
     46 H15         4.5443    4.6654    1.4771 H         1 <0>         0.0869
     47 H16         6.2070    6.1609    2.5484 H         1 <0>         0.0714
     48 H17         4.7809    8.1862    2.6628 H         1 <0>         0.0620
     49 H18         6.3255    8.5374    1.8509 H         1 <0>         0.0645
     50 H19         4.4222    9.5326    0.6117 H         1 <0>         0.0748
     51 H20         2.7594    8.0372   -0.4596 H         1 <0>         0.0684
     52 H21         2.6985    7.8940    1.3136 H         1 <0>         0.0682
     53 H22         4.9275    8.5302   -1.5993 H         1 <0>         0.0622
     54 H23         6.4111    8.7383   -0.6381 H         1 <0>         0.0644
     55 H24         6.3535    6.5049   -1.7137 H         1 <0>         0.0716
     56 H25         7.4534    6.7693    0.4929 H         1 <0>         0.0618
     57 H26         6.7123    5.1584    0.3374 H         1 <0>         0.0649
     58 H27         4.6299    4.8663   -1.0118 H         1 <0>         0.0892
     59 H28         3.8873    6.2690   -1.8175 H         1 <0>         0.0583
@<TRIPOS>BOND
     1    1    9 1
     2    1    2 2
     3    1   37 1
     4    2    3 1
     5    2   23 1
     6    3    4 2
     7    3    5 am
     8    5    6 1
     9    5    7 am
    10    7    8 2
    11    7    9 am
    12    9   10 1
    13   10   11 1
    14   10   18 1
    15   10   12 1
    16   12   13 1
    17   12   14 1
    18   12   22 1
    19   14   15 1
    20   14   16 1
    21   14   21 1
    22   16   17 1
    23   16   18 1
    24   16   19 1
    25   19   20 1
    26   19   38 1
    27   19   39 1
    28   20   40 1
    29   21   41 1
    30   22   42 1
    31   23   24 am
    32   23   43 1
    33   24   25 2
    34   24   26 am
    35   26   27 1
    36   26   44 1
    37   27   32 1
    38   27   36 1
    39   27   28 1
    40   28   29 1
    41   28   45 1
    42   28   46 1
    43   29   35 1
    44   29   30 1
    45   29   47 1
    46   30   31 1
    47   30   48 1
    48   30   49 1
    49   31   32 1
    50   31   33 1
    51   31   50 1
    52   32   51 1
    53   32   52 1
    54   33   34 1
    55   33   53 1
    56   33   54 1
    57   34   35 1
    58   34   36 1
    59   34   55 1
    60   35   56 1
    61   35   57 1
    62   36   58 1
    63   36   59 1
@<TRIPOS>MOLECULE
ZINC56159684
   59    60     0     0     0
SMALL
USER_CHARGES

@<TRIPOS>ATOM
      1 C1          0.6460    1.5808   -0.0350 C.3       1 <0>        -0.1535
      2 C2          0.5896    0.0520   -0.0564 C.3       1 <0>         0.1301
      3 H1          0.9284   -0.3105   -1.0270 H         1 <0>         0.0582
      4 C3         -0.8274   -0.4018    0.1826 C.ar      1 <0>        -0.0989
      5 C4         -1.3353   -0.4296    1.4685 C.ar      1 <0>        -0.0615
      6 C5         -2.6336   -0.8450    1.6909 C.ar      1 <0>        -0.1221
      7 C6         -3.4291   -1.2350    0.6215 C.ar      1 <0>         0.1605
      8 C7         -2.9161   -1.2059   -0.6685 C.ar      1 <0>        -0.1509
      9 C8         -1.6188   -0.7842   -0.8849 C.ar      1 <0>        -0.0997
     10 N1         -4.7448   -1.6568    0.8436 N.am      1 <0>        -0.6862
     11 C9         -5.4810   -1.0842    1.8165 C.2       1 <0>         0.7072
     12 O1         -4.9778   -0.2580    2.5531 O.2       1 <0>        -0.5666
     13 N2         -6.7749   -1.4273    1.9730 N.am      1 <0>        -0.7136
     14 C10        -7.5751   -0.8048    3.0305 C.3       1 <0>         0.0969
     15 C11        -8.4883   -1.7153    3.8540 C.3       1 <0>        -0.1938
     16 C12        -9.0910   -0.7510    2.8304 C.3       1 <0>        -0.1889
     17 N3          1.4602   -0.4850    0.9980 N.3       1 <0>        -0.6620
     18 C13         1.9954   -1.7997    0.6199 C.3       1 <0>         0.0739
     19 H2          1.2793   -2.3126   -0.0222 H         1 <0>         0.1086
     20 C14         3.3149   -1.6161   -0.1326 C.3       1 <0>        -0.1816
     21 C15         2.2350   -2.6204    1.8610 C.2       1 <0>         0.5176
     22 O2          1.9846   -2.1559    2.9525 O.2       1 <0>        -0.4390
     23 N4          2.7276   -3.8706    1.7575 N.am      1 <0>        -0.6956
     24 C16         2.9418   -4.6045    2.8675 C.2       1 <0>         0.6945
     25 O3          2.6908   -4.1389    3.9617 O.2       1 <0>        -0.5232
     26 N5          3.4344   -5.8548    2.7640 N.am      1 <0>        -0.7334
     27 C17         3.6672   -6.6525    3.9705 C.3       1 <0>         0.1846
     28 C18         2.3478   -6.8362    4.7230 C.3       1 <0>        -0.1669
     29 C19         4.2247   -8.0218    3.5767 C.3       1 <0>        -0.1552
     30 C20         4.6724   -5.9326    4.8718 C.3       1 <0>        -0.1666
     31 H3          1.6825    1.9073   -0.1194 H         1 <0>         0.0594
     32 H4          0.0708    1.9774   -0.8716 H         1 <0>         0.0676
     33 H5          0.2249    1.9468    0.9014 H         1 <0>         0.0692
     34 H6         -0.7160   -0.1266    2.2998 H         1 <0>         0.1346
     35 H7         -3.0296   -0.8669    2.6954 H         1 <0>         0.1385
     36 H8         -3.5321   -1.5089   -1.5022 H         1 <0>         0.1221
     37 H9         -1.2206   -0.7571   -1.8885 H         1 <0>         0.1220
     38 H10        -5.1270   -2.3614    0.2973 H         1 <0>         0.4056
     39 H11        -7.1764   -2.0864    1.3853 H         1 <0>         0.3984
     40 H12        -7.1050    0.0341    3.5436 H         1 <0>         0.1412
     41 H13        -8.4937   -2.7773    3.6090 H         1 <0>         0.0969
     42 H14        -8.6190   -1.4754    4.9093 H         1 <0>         0.1046
     43 H15        -9.6183    0.1233    3.2122 H         1 <0>         0.1058
     44 H16        -9.4929   -1.1787    1.9119 H         1 <0>         0.0972
     45 H17         2.2052    0.1599    1.2150 H         1 <0>         0.3542
     46 H18         3.6669   -2.5837   -0.4902 H         1 <0>         0.0687
     47 H19         3.1595   -0.9497   -0.9810 H         1 <0>         0.0728
     48 H20         4.0582   -1.1840    0.5375 H         1 <0>         0.0680
     49 H21         2.9279   -4.2422    0.8842 H         1 <0>         0.4050
     50 H22         3.6347   -6.2264    1.8907 H         1 <0>         0.3957
     51 H23         1.6317   -7.3490    4.0809 H         1 <0>         0.0535
     52 H24         2.5210   -7.4297    5.6206 H         1 <0>         0.0651
     53 H25         1.9506   -5.8606    5.0035 H         1 <0>         0.0802
     54 H26         5.1647   -7.8910    3.0407 H         1 <0>         0.0627
     55 H27         4.3979   -8.6154    4.4744 H         1 <0>         0.0769
     56 H28         3.5086   -8.5347    2.9347 H         1 <0>         0.0626
     57 H29         4.2753   -4.9571    5.1523 H         1 <0>         0.0800
     58 H30         4.8456   -6.5261    5.7694 H         1 <0>         0.0651
     59 H31         5.6124   -5.8017    4.3357 H         1 <0>         0.0536
@<TRIPOS>BOND
     1    1    2 1
     2    1   31 1
     3    1   32 1
     4    1   33 1
     5    2    3 1
     6    2    4 1
     7    2   17 1
     8    4    9 ar
     9    4    5 ar
    10    5    6 ar
    11    5   34 1
    12    6    7 ar
    13    6   35 1
    14    7    8 ar
    15    7   10 1
    16    8    9 ar
    17    8   36 1
    18    9   37 1
    19   10   11 am
    20   10   38 1
    21   11   12 2
    22   11   13 am
    23   13   14 1
    24   13   39 1
    25   14   16 1
    26   14   15 1
    27   14   40 1
    28   15   16 1
    29   15   41 1
    30   15   42 1
    31   16   43 1
    32   16   44 1
    33   17   18 1
    34   17   45 1
    35   18   19 1
    36   18   20 1
    37   18   21 1
    38   20   46 1
    39   20   47 1
    40   20   48 1
    41   21   22 2
    42   21   23 am
    43   23   24 am
    44   23   49 1
    45   24   25 2
    46   24   26 am
    47   26   27 1
    48   26   50 1
    49   27   28 1
    50   27   29 1
    51   27   30 1
    52   28   51 1
    53   28   52 1
    54   28   53 1
    55   29   54 1
    56   29   55 1
    57   29   56 1
    58   30   57 1
    59   30   58 1
    60   30   59 1
@<TRIPOS>MOLECULE
ZINC04350986
   52    54     0     0     0
SMALL
USER_CHARGES
2-(dibenzylaminomethyl)tetrahydropyran-2,3,4,5-tetrol
@<TRIPOS>ATOM
      1 C1         -1.1806   -0.5975    5.4891 C.ar      1 <0>        -0.0859
      2 C2         -2.5078   -0.4814    5.1205 C.ar      1 <0>        -0.1156
      3 C3         -2.8405   -0.2502    3.7989 C.ar      1 <0>        -0.1061
      4 C4         -1.8459   -0.1350    2.8458 C.ar      1 <0>        -0.1501
      5 C5         -0.5189   -0.2564    3.2134 C.ar      1 <0>        -0.0849
      6 C6         -0.1860   -0.4824    4.5360 C.ar      1 <0>        -0.1130
      7 C7         -2.2085    0.1166    1.4049 C.3       1 <0>         0.0371
      8 C8         -3.5405    2.0919    1.8369 C.3       1 <0>         0.0393
      9 C9         -4.7639    1.6737    1.0626 C.ar      1 <0>        -0.1601
     10 C10        -5.1794    2.4160   -0.0270 C.ar      1 <0>        -0.0976
     11 C11        -6.2988    2.0296   -0.7402 C.ar      1 <0>        -0.1109
     12 C12        -7.0087    0.9069   -0.3574 C.ar      1 <0>        -0.0836
     13 C13        -6.5962    0.1676    0.7354 C.ar      1 <0>        -0.1116
     14 C14        -5.4738    0.5510    1.4454 C.ar      1 <0>        -0.0962
     15 C15        -1.1356    2.2760    1.6249 C.3       1 <0>        -0.0249
     16 C16        -0.0290    2.1132    0.5809 C.3       1 <0>         0.2818
     17 C17         1.1789    2.9648    0.9802 C.3       1 <0>         0.1120
     18 H1          0.8947    4.0171    0.9922 H         1 <0>         0.0974
     19 C18         2.3038    2.7500   -0.0370 C.3       1 <0>         0.0846
     20 H2          3.1869    3.3102    0.2703 H         1 <0>         0.0771
     21 C19         2.6408    1.2572   -0.1015 C.3       1 <0>         0.0429
     22 H3          3.0144    0.9250    0.8672 H         1 <0>         0.0805
     23 C20         1.3765    0.4715   -0.4590 C.3       1 <0>         0.0341
     24 O1          0.3605    0.7402    0.5095 O.3       1 <0>        -0.3838
     25 O2          3.6390    1.0356   -1.0998 O.3       1 <0>        -0.5565
     26 O3          1.8766    3.1996   -1.3244 O.3       1 <0>        -0.5387
     27 O4          1.6291    2.5756    2.2794 O.3       1 <0>        -0.5452
     28 O5         -0.5112    2.5388   -0.6952 O.3       1 <0>        -0.5181
     29 H4         -0.9207   -0.7786    6.5216 H         1 <0>         0.1339
     30 H5         -3.2849   -0.5717    5.8651 H         1 <0>         0.1342
     31 H6         -3.8774   -0.1598    3.5109 H         1 <0>         0.1267
     32 H7          0.2580   -0.1709    2.4681 H         1 <0>         0.1468
     33 H8          0.8509   -0.5735    4.8238 H         1 <0>         0.1339
     34 H9         -3.1550   -0.3739    1.1774 H         1 <0>         0.1316
     35 H10        -1.4274   -0.2834    0.7584 H         1 <0>         0.1467
     36 H11        -3.6012    1.6994    2.8520 H         1 <0>         0.1407
     37 H12        -3.4864    3.1800    1.8708 H         1 <0>         0.1367
     38 H13        -4.6273    3.2956   -0.3234 H         1 <0>         0.1319
     39 H14        -6.6212    2.6074   -1.5937 H         1 <0>         0.1370
     40 H15        -7.8858    0.6076   -0.9119 H         1 <0>         0.1364
     41 H16        -7.1510   -0.7093    1.0347 H         1 <0>         0.1366
     42 H17        -5.1517   -0.0264    2.2994 H         1 <0>         0.1297
     43 H18        -0.8007    1.8635    2.5766 H         1 <0>         0.1646
     44 H19        -1.3657    3.3343    1.7484 H         1 <0>         0.1489
     45 H20         1.6006   -0.5951   -0.4643 H         1 <0>         0.1088
     46 H21         1.0270    0.7745   -1.4460 H         1 <0>         0.0827
     47 H22         3.8977    0.1091   -1.1985 H         1 <0>         0.3923
     48 H23         2.5387    3.0870   -2.0201 H         1 <0>         0.3934
     49 H24         2.3938    3.0751    2.5966 H         1 <0>         0.4037
     50 H25        -1.2773    2.0410   -1.0122 H         1 <0>         0.3718
     51 N1         -2.3420    1.5664    1.1498 N.4       1 <0>        -0.3881
     52 H26        -2.4428    1.7194    0.1396 H         1 <0>         0.4153
@<TRIPOS>BOND
     1    1    6 ar
     2    1    2 ar
     3    1   29 1
     4    2    3 ar
     5    2   30 1
     6    3    4 ar
     7    3   31 1
     8    4    5 ar
     9    4    7 1
    10    5    6 ar
    11    5   32 1
    12    6   33 1
    13    7   34 1
    14    7   35 1
    15    7   51 1
    16    8    9 1
    17    8   36 1
    18    8   37 1
    19    8   51 1
    20    9   14 ar
    21    9   10 ar
    22   10   11 ar
    23   10   38 1
    24   11   12 ar
    25   11   39 1
    26   12   13 ar
    27   12   40 1
    28   13   14 ar
    29   13   41 1
    30   14   42 1
    31   15   16 1
    32   15   43 1
    33   15   44 1
    34   15   51 1
    35   16   24 1
    36   16   17 1
    37   16   28 1
    38   17   18 1
    39   17   19 1
    40   17   27 1
    41   19   20 1
    42   19   21 1
    43   19   26 1
    44   21   22 1
    45   21   23 1
    46   21   25 1
    47   23   24 1
    48   23   45 1
    49   23   46 1
    50   25   47 1
    51   26   48 1
    52   27   49 1
    53   28   50 1
    54   51   52 1
@<TRIPOS>MOLECULE
ZINC09348052
   47    51     0     0     0
SMALL
USER_CHARGES
3-(3-chlorophenyl)-2,6-dihydroxy-5-[(1S)-2,3,4,9-tetrahydro-1H-pyrido[3,4-b]indol-1-yl]pyrimidin-4-one
@<TRIPOS>ATOM
      1 C1          2.6012   -2.0666    0.1639 C.ar      1 <0>        -0.1334
      2 C2          3.9819   -2.1929    0.2352 C.ar      1 <0>        -0.0822
      3 C3          4.7901   -1.0777    0.2174 C.ar      1 <0>        -0.1295
      4 C4          4.2213    0.1882    0.1269 C.ar      1 <0>         0.1099
      5 C5          2.8196    0.3121    0.0543 C.ar      1 <0>        -0.0936
      6 C6          2.0206   -0.8336    0.0750 C.ar      1 <0>        -0.0688
      7 C7          2.5525    1.7416   -0.0337 C.2       1 <0>        -0.1558
      8 C8          3.7415    2.3778   -0.0085 C.2       1 <0>         0.0470
      9 N1          4.7478    1.4617    0.0875 N.pl3     1 <0>        -0.5655
     10 H1          5.6935    1.6747    0.1225 H         1 <0>         0.4156
     11 C9          3.8703    3.8820   -0.0774 C.3       1 <0>         0.2186
     12 H2          4.1798    4.1784   -1.0796 H         1 <0>         0.1603
     13 C10         1.4945    3.8903   -0.5945 C.3       1 <0>        -0.0001
     14 C11         1.2258    2.4495   -0.1370 C.3       1 <0>        -0.0689
     15 C12         4.8899    4.3506    0.9286 C.2       1 <0>        -0.4362
     16 C13         6.0711    4.9401    0.5136 C.2       1 <0>         0.4896
     17 N2          6.9620    5.3535    1.4213 N.2       1 <0>        -0.6313
     18 C14         6.7433    5.2030    2.7082 C.2       1 <0>         0.6651
     19 N3          5.6012    4.6252    3.1698 N.am      1 <0>        -0.4657
     20 C15         4.6630    4.1926    2.3015 C.2       1 <0>         0.5714
     21 O1          3.6348    3.6733    2.7056 O.2       1 <0>        -0.5046
     22 C16         5.3991    4.4787    4.5486 C.ar      1 <0>         0.0912
     23 C17         4.7707    5.4851    5.2704 C.ar      1 <0>        -0.0846
     24 C18         4.5687    5.3367    6.6284 C.ar      1 <0>        -0.0905
     25 C19         5.0000    4.1913    7.2722 C.ar      1 <0>        -0.0795
     26 C20         5.6312    3.1887    6.5572 C.ar      1 <0>        -0.0252
     27 C21         5.8317    3.3300    5.1966 C.ar      1 <0>        -0.0797
     28 Cl1         6.1712    1.7524    7.3691 Cl        1 <0>        -0.0405
     29 O2          7.6707    5.6297    3.5900 O.3       1 <0>        -0.4273
     30 O3          6.3218    5.1021   -0.8065 O.3       1 <0>        -0.4335
     31 H3          1.9811   -2.9507    0.1793 H         1 <0>         0.1308
     32 H4          4.4265   -3.1747    0.3049 H         1 <0>         0.1336
     33 H5          5.8632   -1.1860    0.2739 H         1 <0>         0.1244
     34 H6          0.9459   -0.7447    0.0162 H         1 <0>         0.1265
     35 H7          1.8055    3.8878   -1.6392 H         1 <0>         0.1333
     36 H8          0.5849    4.4813   -0.4874 H         1 <0>         0.1396
     37 H9          0.5932    1.9430   -0.8660 H         1 <0>         0.1192
     38 H10         0.7350    2.4570    0.8362 H         1 <0>         0.0994
     39 H11         4.4371    6.3818    4.7693 H         1 <0>         0.1349
     40 H12         4.0767    6.1177    7.1891 H         1 <0>         0.1508
     41 H13         4.8442    4.0793    8.3350 H         1 <0>         0.1497
     42 H14         6.3241    2.5474    4.6385 H         1 <0>         0.1369
     43 H15         8.4693    6.0352    3.2255 H         1 <0>         0.4554
     44 H16         7.1714    5.5228   -0.9968 H         1 <0>         0.4330
     45 N4          2.5573    4.4854    0.2422 N.4       1 <0>        -0.5138
     46 H17         2.5987    5.4962    0.0667 H         1 <0>         0.4347
     47 H18         2.3410    4.3184    1.2319 H         1 <0>         0.4391
@<TRIPOS>BOND
     1    1    6 ar
     2    1    2 ar
     3    1   31 1
     4    2    3 ar
     5    2   32 1
     6    3    4 ar
     7    3   33 1
     8    4    9 1
     9    4    5 ar
    10    5    6 ar
    11    5    7 1
    12    6   34 1
    13    7   14 1
    14    7    8 2
    15    8    9 1
    16    8   11 1
    17    9   10 1
    18   11   12 1
    19   11   15 1
    20   11   45 1
    21   13   14 1
    22   13   35 1
    23   13   36 1
    24   13   45 1
    25   14   37 1
    26   14   38 1
    27   15   20 1
    28   15   16 2
    29   16   17 1
    30   16   30 1
    31   17   18 2
    32   18   19 1
    33   18   29 1
    34   19   20 am
    35   19   22 1
    36   20   21 2
    37   22   27 ar
    38   22   23 ar
    39   23   24 ar
    40   23   39 1
    41   24   25 ar
    42   24   40 1
    43   25   26 ar
    44   25   41 1
    45   26   27 ar
    46   26   28 1
    47   27   42 1
    48   29   43 1
    49   30   44 1
    50   45   46 1
    51   45   47 1
@<TRIPOS>MOLECULE
ZINC34659847
   42    42     0     0     0
SMALL
USER_CHARGES

@<TRIPOS>ATOM
      1 C1         -0.2463    1.4989   -0.1047 C.3       1 <0>        -0.1847
      2 C2          0.0023   -0.0069    0.0033 C.3       1 <0>         0.0692
      3 H1         -0.9507   -0.5262    0.1051 H         1 <0>         0.1148
      4 C3          0.8596   -0.2893    1.2101 C.2       1 <0>         0.5278
      5 O1          1.9738   -0.7458    1.0687 O.2       1 <0>        -0.4502
      6 N1          0.3877   -0.0342    2.4465 N.am      1 <0>        -0.6845
      7 C4          1.1545   -0.2867    3.5258 C.2       1 <0>         0.6993
      8 O2          2.2714   -0.7444    3.3841 O.2       1 <0>        -0.5290
      9 N2          0.6826   -0.0317    4.7622 N.am      1 <0>        -0.8500
     10 O3          0.6709   -0.4649   -1.1737 O.3       1 <0>        -0.2927
     11 C5         -0.1070   -0.7747   -2.2443 C.ar      1 <0>         0.1658
     12 C6         -1.4730   -0.5350   -2.2030 C.ar      1 <0>        -0.1999
     13 C7         -2.2618   -0.8505   -3.2920 C.ar      1 <0>        -0.0146
     14 C8         -1.6906   -1.4053   -4.4236 C.ar      1 <0>        -0.1276
     15 C9         -0.3291   -1.6455   -4.4666 C.ar      1 <0>        -0.0222
     16 C10         0.4644   -1.3256   -3.3818 C.ar      1 <0>        -0.1843
     17 C11         1.9488   -1.5808   -3.4319 C.3       1 <0>         0.0518
     18 N3          2.2557   -2.8278   -2.7187 N.4       1 <0>        -0.5068
     19 C12         3.7026   -3.0765   -2.7676 C.3       1 <0>         0.0243
     20 C13         4.0376   -4.3060   -1.9208 C.3       1 <0>        -0.1841
     21 C14         4.1290   -3.3233   -4.2161 C.3       1 <0>        -0.1843
     22 Br1        -2.7730   -1.8363   -5.9131 Br        1 <0>        -0.0159
     23 H2          0.7066    2.0181   -0.2065 H         1 <0>         0.0845
     24 H3         -0.8664    1.7031   -0.9776 H         1 <0>         0.0864
     25 H4         -0.7563    1.8482    0.7931 H         1 <0>         0.0898
     26 H5         -0.5037    0.3311    2.5596 H         1 <0>         0.4145
     27 H6         -0.2089    0.3336    4.8753 H         1 <0>         0.4036
     28 H7          1.2344   -0.2134    5.5390 H         1 <0>         0.4268
     29 H8         -1.9192   -0.1023   -1.3198 H         1 <0>         0.1515
     30 H9         -3.3251   -0.6644   -3.2601 H         1 <0>         0.1508
     31 H10         0.1147   -2.0789   -5.3507 H         1 <0>         0.1519
     32 H11         2.2675   -1.6684   -4.4706 H         1 <0>         0.1419
     33 H12         2.4761   -0.7524   -2.9588 H         1 <0>         0.1436
     34 H13         1.9607   -2.7466   -1.7572 H         1 <0>         0.4304
     35 H14         4.2338   -2.2094   -2.3752 H         1 <0>         0.1407
     36 H15         3.5064   -5.1732   -2.3132 H         1 <0>         0.0801
     37 H16         5.1113   -4.4906   -1.9571 H         1 <0>         0.1071
     38 H17         3.7339   -4.1302   -0.8889 H         1 <0>         0.0829
     39 H18         5.2026   -3.5079   -4.2524 H         1 <0>         0.1064
     40 H19         3.5978   -4.1905   -4.6085 H         1 <0>         0.0816
     41 H20         3.8903   -2.4474   -4.8194 H         1 <0>         0.0808
     42 H21         1.7676   -3.5946   -3.1567 H         1 <0>         0.4227
@<TRIPOS>BOND
     1    1    2 1
     2    1   23 1
     3    1   24 1
     4    1   25 1
     5    2    3 1
     6    2    4 1
     7    2   10 1
     8    4    5 2
     9    4    6 am
    10    6    7 am
    11    6   26 1
    12    7    8 2
    13    7    9 am
    14    9   27 1
    15    9   28 1
    16   10   11 1
    17   11   16 ar
    18   11   12 ar
    19   12   13 ar
    20   12   29 1
    21   13   14 ar
    22   13   30 1
    23   14   15 ar
    24   14   22 1
    25   15   16 ar
    26   15   31 1
    27   16   17 1
    28   17   18 1
    29   17   32 1
    30   17   33 1
    31   18   19 1
    32   18   34 1
    33   18   42 1
    34   19   20 1
    35   19   21 1
    36   19   35 1
    37   20   36 1
    38   20   37 1
    39   20   38 1
    40   21   39 1
    41   21   40 1
    42   21   41 1
@<TRIPOS>MOLECULE
ZINC55710442
   59    60     0     0     0
SMALL
USER_CHARGES

@<TRIPOS>ATOM
      1 C1         -0.0038    1.5258    0.0189 C.3       1 <0>        -0.1576
      2 C2          0.0021   -0.0041    0.0020 C.3       1 <0>         0.1875
      3 H1         -1.0241   -0.3714    0.0038 H         1 <0>         0.0969
      4 C3          0.7075   -0.4901   -1.2379 C.ar      1 <0>        -0.1232
      5 C4          2.0894   -0.5233   -1.2771 C.ar      1 <0>        -0.0650
      6 C5          2.7390   -0.9681   -2.4118 C.ar      1 <0>        -0.1805
      7 C6          2.0026   -1.3824   -3.5144 C.ar      1 <0>         0.1979
      8 C7          0.6146   -1.3477   -3.4716 C.ar      1 <0>        -0.1802
      9 C8         -0.0287   -0.9071   -2.3317 C.ar      1 <0>        -0.0568
     10 N1          2.6564   -1.8324   -4.6637 N.pl3     1 <0>        -0.6447
     11 C9          1.8991   -2.3854   -5.7972 C.3       1 <0>         0.0981
     12 C10         2.3600   -1.6827   -7.0784 C.3       1 <0>        -0.0231
     13 N2          3.8177   -1.8058   -7.2057 N.4       1 <0>        -0.3840
     14 C11         4.4778   -1.0929   -6.1047 C.3       1 <0>        -0.0226
     15 C12         4.1213   -1.7612   -4.7776 C.3       1 <0>         0.0988
     16 C13         4.2460   -1.2286   -8.4869 C.3       1 <0>        -0.0471
     17 N3          0.7013   -0.5028    1.1889 N.am      1 <0>        -0.7306
     18 C14         0.0361   -0.6469    2.3521 C.2       1 <0>         0.5020
     19 O1         -1.1415   -0.3637    2.4163 O.2       1 <0>        -0.4920
     20 C15         0.7554   -1.1599    3.5729 C.3       1 <0>         0.1624
     21 H2          1.7525   -0.7219    3.6180 H         1 <0>         0.1104
     22 C16         0.8707   -2.6835    3.4943 C.3       1 <0>        -0.1185
     23 C17         1.7082   -3.1929    4.6690 C.3       1 <0>        -0.0798
     24 S1          1.8450   -4.9993    4.5757 S.3       1 <0>        -0.2608
     25 C18         2.8531   -5.4382    6.0185 C.3       1 <0>        -0.1210
     26 N4          0.0040   -0.7884    4.7745 N.am      1 <0>        -0.7371
     27 C19        -1.2624   -1.2197    4.9375 C.2       1 <0>         0.7114
     28 O2         -1.7814   -1.9170    4.0874 O.2       1 <0>        -0.5628
     29 N5         -1.9536   -0.8779    6.0429 N.am      1 <0>        -0.8681
     30 H3          1.0224    1.8932    0.0171 H         1 <0>         0.0575
     31 H4         -0.5241    1.8969   -0.8642 H         1 <0>         0.0666
     32 H5         -0.5140    1.8774    0.9157 H         1 <0>         0.0660
     33 H6          2.6613   -0.2008   -0.4196 H         1 <0>         0.1260
     34 H7          3.8182   -0.9935   -2.4419 H         1 <0>         0.1246
     35 H8          0.0391   -1.6687   -4.3272 H         1 <0>         0.1251
     36 H9         -1.1079   -0.8840   -2.2961 H         1 <0>         0.1312
     37 H10         2.0895   -3.4556   -5.8777 H         1 <0>         0.0886
     38 H11         0.8339   -2.2102   -5.6464 H         1 <0>         0.1273
     39 H12         1.8795   -2.1460   -7.9401 H         1 <0>         0.1414
     40 H13         2.0869   -0.6284   -7.0331 H         1 <0>         0.1325
     41 H14         5.5578   -1.1216   -6.2489 H         1 <0>         0.1414
     42 H15         4.1406   -0.0565   -6.0889 H         1 <0>         0.1321
     43 H16         4.5246   -1.1735   -3.9529 H         1 <0>         0.1264
     44 H17         4.5399   -2.7673   -4.7533 H         1 <0>         0.0876
     45 H18         3.9650   -0.1761   -8.5233 H         1 <0>         0.1216
     46 H19         5.3280   -1.3194   -8.5826 H         1 <0>         0.1253
     47 H20         3.7628   -1.7622   -9.3054 H         1 <0>         0.1254
     48 H21         1.6431   -0.7293    1.1375 H         1 <0>         0.3956
     49 H22        -0.1245   -3.1260    3.5387 H         1 <0>         0.1084
     50 H23         1.3513   -2.9636    2.5569 H         1 <0>         0.0822
     51 H24         2.7034   -2.7504    4.6245 H         1 <0>         0.0799
     52 H25         1.2276   -2.9128    5.6063 H         1 <0>         0.0825
     53 H26         2.9925   -6.5188    6.0492 H         1 <0>         0.1039
     54 H27         3.8242   -4.9486    5.9457 H         1 <0>         0.0764
     55 H28         2.3484   -5.1110    6.9275 H         1 <0>         0.0771
     56 H29         0.4180   -0.2321    5.4527 H         1 <0>         0.4014
     57 H30        -1.5396   -0.3216    6.7212 H         1 <0>         0.3947
     58 H31        -2.8651   -1.1883    6.1603 H         1 <0>         0.4166
     59 H32         4.0755   -2.7808   -7.1759 H         1 <0>         0.4249
@<TRIPOS>BOND
     1    1    2 1
     2    1   30 1
     3    1   31 1
     4    1   32 1
     5    2    3 1
     6    2    4 1
     7    2   17 1
     8    4    9 ar
     9    4    5 ar
    10    5    6 ar
    11    5   33 1
    12    6    7 ar
    13    6   34 1
    14    7    8 ar
    15    7   10 1
    16    8    9 ar
    17    8   35 1
    18    9   36 1
    19   10   15 1
    20   10   11 1
    21   11   12 1
    22   11   37 1
    23   11   38 1
    24   12   13 1
    25   12   39 1
    26   12   40 1
    27   13   14 1
    28   13   16 1
    29   13   59 1
    30   14   15 1
    31   14   41 1
    32   14   42 1
    33   15   43 1
    34   15   44 1
    35   16   45 1
    36   16   46 1
    37   16   47 1
    38   17   18 am
    39   17   48 1
    40   18   19 2
    41   18   20 1
    42   20   21 1
    43   20   22 1
    44   20   26 1
    45   22   23 1
    46   22   49 1
    47   22   50 1
    48   23   24 1
    49   23   51 1
    50   23   52 1
    51   24   25 1
    52   25   53 1
    53   25   54 1
    54   25   55 1
    55   26   27 am
    56   26   56 1
    57   27   28 2
    58   27   29 am
    59   29   57 1
    60   29   58 1
@<TRIPOS>MOLECULE
ZINC63821717
   58    59     0     0     0
SMALL
USER_CHARGES

@<TRIPOS>ATOM
      1 C1         -1.2590    0.7320   -9.0777 C.3       1 <0>        -0.1483
      2 C2         -0.7480   -0.7036   -9.2141 C.3       1 <0>        -0.0998
      3 C3          0.1374   -1.0353   -8.0406 C.ar      1 <0>        -0.0429
      4 C4          1.4953   -0.7854   -8.1068 C.ar      1 <0>        -0.1000
      5 C5          2.3074   -1.0897   -7.0304 C.ar      1 <0>        -0.0845
      6 C6          1.7615   -1.6434   -5.8875 C.ar      1 <0>        -0.1563
      7 C7          0.4034   -1.8925   -5.8209 C.ar      1 <0>        -0.1155
      8 C8         -0.4093   -1.5843   -6.8957 C.ar      1 <0>        -0.1027
      9 C9          2.6470   -1.9760   -4.7143 C.3       1 <0>         0.0670
     10 C10         2.9597   -3.4737   -4.7198 C.3       1 <0>         0.1037
     11 N1          3.6620   -3.8215   -5.9576 N.am      1 <0>        -0.6979
     12 C11         3.9504   -5.1096   -6.2297 C.2       1 <0>         0.5220
     13 O1          3.6283   -5.9814   -5.4493 O.2       1 <0>        -0.4998
     14 C12         4.6664   -5.4641   -7.4915 C.2       1 <0>         0.5046
     15 O2          4.9885   -4.5921   -8.2720 O.2       1 <0>        -0.4845
     16 N2          4.9548   -6.7522   -7.7636 N.am      1 <0>        -0.6328
     17 C13         5.5155   -7.0974   -8.9964 C.ar      1 <0>         0.1246
     18 C14         5.3155   -6.2836  -10.1016 C.ar      1 <0>        -0.0644
     19 C15         5.8776   -6.6324  -11.3290 C.ar      1 <0>        -0.1246
     20 C16         6.6380   -7.7984  -11.4374 C.ar      1 <0>        -0.0892
     21 C17         6.8313   -8.6015  -10.3320 C.ar      1 <0>        -0.1043
     22 C18         6.2786   -8.2533   -9.1136 C.ar      1 <0>        -0.0760
     23 C19         6.4993   -9.1329   -7.9100 C.3       1 <0>        -0.1255
     24 C20         5.6687   -5.7706  -12.5122 C.2       1 <0>         0.5644
     25 O3          5.0060   -4.7561  -12.4158 O.2       1 <0>        -0.5365
     26 N3          6.2130   -6.1098  -13.6976 N.am      1 <0>        -0.8482
     27 N4          1.9580   -1.6242   -3.4655 N.4       1 <0>        -0.3802
     28 C21         2.8633   -1.8408   -2.3290 C.3       1 <0>        -0.0558
     29 C22         1.5560   -0.2120   -3.5091 C.3       1 <0>        -0.0499
     30 H1         -1.8292    0.8285   -8.1537 H         1 <0>         0.0562
     31 H2         -0.4126    1.4184   -9.0557 H         1 <0>         0.0579
     32 H3         -1.8994    0.9719   -9.9265 H         1 <0>         0.0676
     33 H4         -1.5944   -1.3901   -9.2361 H         1 <0>         0.0805
     34 H5         -0.1778   -0.8001  -10.1381 H         1 <0>         0.0826
     35 H6          1.9218   -0.3528   -8.9998 H         1 <0>         0.1386
     36 H7          3.3685   -0.8951   -7.0824 H         1 <0>         0.1343
     37 H8         -0.0230   -2.3254   -4.9280 H         1 <0>         0.1195
     38 H9         -1.4709   -1.7754   -6.8423 H         1 <0>         0.1356
     39 H10         3.5760   -1.4107   -4.7885 H         1 <0>         0.1521
     40 H11         3.5897   -3.7165   -3.8641 H         1 <0>         0.0992
     41 H12         2.0299   -4.0392   -4.6585 H         1 <0>         0.0988
     42 H13         3.9194   -3.1246   -6.5813 H         1 <0>         0.4201
     43 H14         4.7732   -7.4397   -7.1039 H         1 <0>         0.4256
     44 H15         4.7261   -5.3831  -10.0118 H         1 <0>         0.1585
     45 H16         7.0747   -8.0720  -12.3865 H         1 <0>         0.1332
     46 H17         7.4195   -9.5031  -10.4181 H         1 <0>         0.1405
     47 H18         5.7068   -9.8793   -7.8553 H         1 <0>         0.0818
     48 H19         7.4639   -9.6328   -7.9973 H         1 <0>         0.0821
     49 H20         6.4867   -8.5227   -7.0069 H         1 <0>         0.0660
     50 H21         6.7418   -6.9193  -13.7745 H         1 <0>         0.4023
     51 H22         6.0760   -5.5444  -14.4737 H         1 <0>         0.4086
     52 H23         3.7059   -1.1529   -2.3995 H         1 <0>         0.1272
     53 H24         2.3260   -1.6629   -1.3975 H         1 <0>         0.1317
     54 H25         3.2297   -2.8672   -2.3468 H         1 <0>         0.1263
     55 H26         0.8843   -0.0513   -4.3524 H         1 <0>         0.1272
     56 H27         1.0448    0.0491   -2.5825 H         1 <0>         0.1289
     57 H28         2.4407    0.4142   -3.6249 H         1 <0>         0.1249
     58 H29         1.1391   -2.2039   -3.3584 H         1 <0>         0.4253
@<TRIPOS>BOND
     1    1    2 1
     2    1   30 1
     3    1   31 1
     4    1   32 1
     5    2    3 1
     6    2   33 1
     7    2   34 1
     8    3    8 ar
     9    3    4 ar
    10    4    5 ar
    11    4   35 1
    12    5    6 ar
    13    5   36 1
    14    6    7 ar
    15    6    9 1
    16    7    8 ar
    17    7   37 1
    18    8   38 1
    19    9   10 1
    20    9   27 1
    21    9   39 1
    22   10   11 1
    23   10   40 1
    24   10   41 1
    25   11   12 am
    26   11   42 1
    27   12   13 2
    28   12   14 1
    29   14   15 2
    30   14   16 am
    31   16   17 1
    32   16   43 1
    33   17   22 ar
    34   17   18 ar
    35   18   19 ar
    36   18   44 1
    37   19   20 ar
    38   19   24 1
    39   20   21 ar
    40   20   45 1
    41   21   22 ar
    42   21   46 1
    43   22   23 1
    44   23   47 1
    45   23   48 1
    46   23   49 1
    47   24   25 2
    48   24   26 am
    49   26   50 1
    50   26   51 1
    51   27   28 1
    52   27   29 1
    53   27   58 1
    54   28   52 1
    55   28   53 1
    56   28   54 1
    57   29   55 1
    58   29   56 1
    59   29   57 1
@<TRIPOS>MOLECULE
ZINC03999068
   59    61     0     0     0
SMALL
USER_CHARGES
2-methyl-6-[2-methyl-5-(3,4,5-trihydroxy-6-methyl-tetrahydropyran-2-yl)amino-phenyl]amino-tetrahydropyran-3,4,5-triol
@<TRIPOS>ATOM
      1 C1         -2.8462    2.4241   -3.2424 C.3       1 <0>        -0.0983
      2 C2         -2.7541    3.2919   -2.0138 C.ar      1 <0>        -0.2038
      3 C3         -3.5501    4.4158   -1.9015 C.ar      1 <0>        -0.0303
      4 C4         -3.4650    5.2169   -0.7794 C.ar      1 <0>        -0.2338
      5 C5         -2.5812    4.8919    0.2430 C.ar      1 <0>         0.2518
      6 C6         -1.7842    3.7612    0.1357 C.ar      1 <0>        -0.2558
      7 C7         -1.8725    2.9582   -0.9929 C.ar      1 <0>         0.2582
      8 N1         -1.0721    1.8191   -1.1049 N.pl3     1 <0>        -0.7430
      9 C8         -0.1387    1.4713   -0.0307 C.3       1 <0>         0.2825
     10 H1         -0.4897    1.8984    0.9086 H         1 <0>         0.1260
     11 C9         -0.0558   -0.0517    0.1004 C.3       1 <0>         0.0433
     12 H2          0.6073   -0.3107    0.9258 H         1 <0>         0.0942
     13 C10         0.4951   -0.6393   -1.2025 C.3       1 <0>         0.1255
     14 H3         -0.1930   -0.4230   -2.0197 H         1 <0>         0.0692
     15 C11         1.8581   -0.0064   -1.4991 C.3       1 <0>         0.0840
     16 H4          2.2329   -0.3787   -2.4525 H         1 <0>         0.0784
     17 C12         1.7013    1.5149   -1.5684 C.3       1 <0>         0.0558
     18 H5          1.0308    1.7743   -2.3878 H         1 <0>         0.0714
     19 O1          1.1560    1.9929   -0.3370 O.3       1 <0>        -0.3684
     20 C13         3.0690    2.1586   -1.8051 C.3       1 <0>        -0.1504
     21 O2          2.7781   -0.3447   -0.4593 O.3       1 <0>        -0.5425
     22 O3          0.6430   -2.0539   -1.0640 O.3       1 <0>        -0.5463
     23 O4         -1.3593   -0.5811    0.3509 O.3       1 <0>        -0.5548
     24 N2         -2.4950    5.7030    1.3768 N.pl3     1 <0>        -0.7228
     25 C14        -3.2237    6.9730    1.4260 C.3       1 <0>         0.2909
     26 H6         -3.3768    7.3437    0.4125 H         1 <0>         0.0831
     27 C15        -2.4134    7.9957    2.2267 C.3       1 <0>         0.0442
     28 H7         -1.4650    8.1836    1.7234 H         1 <0>         0.0685
     29 C16        -3.2083    9.3014    2.3248 C.3       1 <0>         0.1188
     30 H8         -3.3542    9.7153    1.3271 H         1 <0>         0.0828
     31 C17        -4.5701    9.0105    2.9630 C.3       1 <0>         0.0859
     32 H9         -5.1641    9.9241    2.9862 H         1 <0>         0.0700
     33 C18        -5.2971    7.9485    2.1338 C.3       1 <0>         0.0648
     34 H10        -5.4777    8.3322    1.1297 H         1 <0>         0.0667
     35 O5         -4.4902    6.7717    2.0565 O.3       1 <0>        -0.3761
     36 C19        -6.6328    7.6086    2.7981 C.3       1 <0>        -0.1494
     37 O6         -4.3802    8.5289    4.2949 O.3       1 <0>        -0.5193
     38 O7         -2.4921   10.2376    3.1326 O.3       1 <0>        -0.5375
     39 O8         -2.1651    7.4867    3.5387 O.3       1 <0>        -0.5124
     40 H11        -3.6026    1.6546   -3.0878 H         1 <0>         0.0622
     41 H12        -3.1217    3.0372   -4.1005 H         1 <0>         0.0647
     42 H13        -1.8810    1.9527   -3.4275 H         1 <0>         0.0500
     43 H14        -4.2372    4.6709   -2.6947 H         1 <0>         0.1213
     44 H15        -4.0856    6.0968   -0.6965 H         1 <0>         0.1153
     45 H16        -1.0969    3.5063    0.9288 H         1 <0>         0.1199
     46 H17        -1.1343    1.2583   -1.8939 H         1 <0>         0.3979
     47 H18         3.4850    1.7931   -2.7440 H         1 <0>         0.0761
     48 H19         2.9571    3.2417   -1.8544 H         1 <0>         0.0735
     49 H20         3.7392    1.8995   -0.9854 H         1 <0>         0.0691
     50 H21         3.6637    0.0236   -0.5825 H         1 <0>         0.3788
     51 H22        -0.1824   -2.5184   -0.8688 H         1 <0>         0.3869
     52 H23        -1.7705   -0.2475    1.1600 H         1 <0>         0.3871
     53 H24        -1.9528    5.4253    2.1316 H         1 <0>         0.3987
     54 H25        -7.2477    8.5066    2.8579 H         1 <0>         0.0762
     55 H26        -7.1502    6.8525    2.2076 H         1 <0>         0.0724
     56 H27        -6.4519    7.2246    3.8021 H         1 <0>         0.0695
     57 H28        -5.2028    8.3239    4.7600 H         1 <0>         0.3678
     58 H29        -1.6160   10.4627    2.7907 H         1 <0>         0.3780
     59 H30        -1.6685    6.6570    3.5512 H         1 <0>         0.3634
@<TRIPOS>BOND
     1    1    2 1
     2    1   40 1
     3    1   41 1
     4    1   42 1
     5    2    7 ar
     6    2    3 ar
     7    3    4 ar
     8    3   43 1
     9    4    5 ar
    10    4   44 1
    11    5    6 ar
    12    5   24 1
    13    6    7 ar
    14    6   45 1
    15    7    8 1
    16    8    9 1
    17    8   46 1
    18    9   10 1
    19    9   19 1
    20    9   11 1
    21   11   12 1
    22   11   13 1
    23   11   23 1
    24   13   14 1
    25   13   15 1
    26   13   22 1
    27   15   16 1
    28   15   17 1
    29   15   21 1
    30   17   18 1
    31   17   19 1
    32   17   20 1
    33   20   47 1
    34   20   48 1
    35   20   49 1
    36   21   50 1
    37   22   51 1
    38   23   52 1
    39   24   25 1
    40   24   53 1
    41   25   26 1
    42   25   35 1
    43   25   27 1
    44   27   28 1
    45   27   29 1
    46   27   39 1
    47   29   30 1
    48   29   31 1
    49   29   38 1
    50   31   32 1
    51   31   33 1
    52   31   37 1
    53   33   34 1
    54   33   35 1
    55   33   36 1
    56   36   54 1
    57   36   55 1
    58   36   56 1
    59   37   57 1
    60   38   58 1
    61   39   59 1
@<TRIPOS>MOLECULE
ZINC08299030
   49    51     0     0     0
SMALL
USER_CHARGES
7-methyl-5-[3,4,5-trihydroxy-6-(hydroxymethyl)tetrahydropyran-2-yl]oxy-4-oxabicyclo[4.3.0]non-2-ene-1,7,9-triol
@<TRIPOS>ATOM
      1 C1          0.1646    2.0118   -2.3503 C.3       1 <0>        -0.1729
      2 C2         -0.7961    1.6165   -1.2270 C.3       1 <0>         0.1482
      3 C3         -0.0127    1.0858    0.0080 C.3       1 <0>        -0.1812
      4 C4         -0.7704    1.6018    1.2603 C.3       1 <0>         0.0940
      5 H1         -1.0620    0.7669    1.8974 H         1 <0>         0.0678
      6 C5         -2.0021    2.3032    0.7107 C.3       1 <0>         0.1782
      7 C6         -1.5143    2.8435   -0.6653 C.3       1 <0>        -0.0971
      8 H2         -0.8108    3.6643   -0.5256 H         1 <0>         0.1153
      9 C7         -2.7628    3.3157   -1.3857 C.3       1 <0>         0.2855
     10 H3         -3.4941    2.5091   -1.4366 H         1 <0>         0.1053
     11 O1         -3.2706    4.4227   -0.5951 O.3       1 <0>        -0.3276
     12 C8         -3.1502    4.4154    0.7486 C.2       1 <0>         0.1101
     13 C9         -2.5566    3.4656    1.4538 C.2       1 <0>        -0.3197
     14 O2         -2.4313    3.7649   -2.7011 O.3       1 <0>        -0.3376
     15 C10        -3.5637    4.1239   -3.4953 C.3       1 <0>         0.2269
     16 H4         -4.3011    3.3220   -3.4604 H         1 <0>         0.0576
     17 C11        -3.1211    4.3481   -4.9436 C.3       1 <0>         0.0658
     18 H5         -2.7196    3.4196   -5.3497 H         1 <0>         0.0680
     19 C12        -4.3286    4.7908   -5.7756 C.3       1 <0>         0.0788
     20 H6         -5.0757    3.9972   -5.7872 H         1 <0>         0.0781
     21 C13        -4.9310    6.0525   -5.1499 C.3       1 <0>         0.0908
     22 H7         -5.8239    6.3430   -5.7035 H         1 <0>         0.0719
     23 C14        -5.3037    5.7625   -3.6936 C.3       1 <0>         0.1110
     24 H8         -6.0639    4.9820   -3.6615 H         1 <0>         0.0764
     25 O3         -4.1425    5.3262   -2.9840 O.3       1 <0>        -0.3492
     26 C15        -5.8509    7.0348   -3.0436 C.3       1 <0>         0.0920
     27 O4         -6.3054    6.7370   -1.7220 O.3       1 <0>        -0.5648
     28 O5         -3.9734    7.1122   -5.1958 O.3       1 <0>        -0.5277
     29 O6         -3.9104    5.0731   -7.1126 O.3       1 <0>        -0.5479
     30 O7         -2.1155    5.3626   -4.9841 O.3       1 <0>        -0.5216
     31 O8         -3.0375    1.3418    0.4972 O.3       1 <0>        -0.5337
     32 O9          0.0436    2.5233    1.9887 O.3       1 <0>        -0.5522
     33 O10        -1.7373    0.6443   -1.6864 O.3       1 <0>        -0.5360
     34 H9          0.7305    1.1365   -2.6693 H         1 <0>         0.0590
     35 H10        -0.4040    2.4040   -3.1935 H         1 <0>         0.0731
     36 H11         0.8518    2.7766   -1.9883 H         1 <0>         0.0668
     37 H12         0.0021   -0.0041    0.0020 H         1 <0>         0.0802
     38 H13         1.0059    1.4738    0.0004 H         1 <0>         0.0848
     39 H14        -3.5711    5.2491    1.2910 H         1 <0>         0.1618
     40 H15        -2.4783    3.5322    2.5289 H         1 <0>         0.1357
     41 H16        -5.0628    7.7863   -2.9961 H         1 <0>         0.0680
     42 H17        -6.6821    7.4170   -3.6362 H         1 <0>         0.0603
     43 H18        -6.6662    7.4993   -1.2490 H         1 <0>         0.3809
     44 H19        -3.6915    7.3491   -6.0899 H         1 <0>         0.3831
     45 H20        -3.5184    4.3167   -7.5701 H         1 <0>         0.3854
     46 H21        -1.3222    5.1507   -4.4733 H         1 <0>         0.3792
     47 H22        -3.3929    0.9593    1.3111 H         1 <0>         0.3760
     48 H23         0.8669    2.1417    2.3229 H         1 <0>         0.3797
     49 H24        -1.3352   -0.1859   -1.9767 H         1 <0>         0.3735
@<TRIPOS>BOND
     1    1    2 1
     2    1   34 1
     3    1   35 1
     4    1   36 1
     5    2    7 1
     6    2    3 1
     7    2   33 1
     8    3    4 1
     9    3   37 1
    10    3   38 1
    11    4    5 1
    12    4    6 1
    13    4   32 1
    14    6   13 1
    15    6    7 1
    16    6   31 1
    17    7    8 1
    18    7    9 1
    19    9   10 1
    20    9   11 1
    21    9   14 1
    22   11   12 1
    23   12   13 2
    24   12   39 1
    25   13   40 1
    26   14   15 1
    27   15   16 1
    28   15   25 1
    29   15   17 1
    30   17   18 1
    31   17   19 1
    32   17   30 1
    33   19   20 1
    34   19   21 1
    35   19   29 1
    36   21   22 1
    37   21   23 1
    38   21   28 1
    39   23   24 1
    40   23   25 1
    41   23   26 1
    42   26   27 1
    43   26   41 1
    44   26   42 1
    45   27   43 1
    46   28   44 1
    47   29   45 1
    48   30   46 1
    49   31   47 1
    50   32   48 1
    51   33   49 1
@<TRIPOS>MOLECULE
ZINC33650602
   67    69     0     0     0
SMALL
USER_CHARGES
(2R,3R,4R,5S,6S)-2-[(2S,3S,4S,5R,6S)-6-(2-cyclohexylethoxy)-4,5-dihydroxy-2-(hydroxymethyl)tetrahydropyran-3-yl]oxy-6-(hydroxymethyl)tetrahydropyran-3,4,5-triol
@<TRIPOS>ATOM
      1 C1          6.0423   -4.1747  -11.2729 C.3       1 <0>        -0.1215
      2 C2          6.6971   -5.3220  -10.5010 C.3       1 <0>        -0.1202
      3 C3          6.0336   -5.4577   -9.1290 C.3       1 <0>        -0.1141
      4 C4          6.2060   -4.1535   -8.3479 C.3       1 <0>        -0.0824
      5 C5          5.5511   -3.0063   -9.1198 C.3       1 <0>        -0.1194
      6 C6          6.2147   -2.8705  -10.4917 C.3       1 <0>        -0.1202
      7 C7          5.5425   -4.2893   -6.9759 C.3       1 <0>        -0.1125
      8 C8          5.8213   -3.0332   -6.1480 C.3       1 <0>         0.0571
      9 O1          5.2016   -3.1600   -4.8666 O.3       1 <0>        -0.3514
     10 C9          5.4021   -2.0339   -4.0101 C.3       1 <0>         0.2683
     11 H1          6.4697   -1.7721   -4.0517 H         1 <0>         0.0633
     12 C10         4.9173   -2.3736   -2.5982 C.3       1 <0>         0.1198
     13 H2          5.4505   -3.2441   -2.1884 H         1 <0>         0.0707
     14 C11         5.0797   -1.1428   -1.7010 C.3       1 <0>         0.0636
     15 H3          6.1396   -0.8916   -1.5476 H         1 <0>         0.0713
     16 C12         4.3066    0.0285   -2.3150 C.3       1 <0>         0.0361
     17 H4          4.3882    0.9341   -1.6960 H         1 <0>         0.0855
     18 C13         4.8150    0.2754   -3.7377 C.3       1 <0>         0.1147
     19 H5          5.8912    0.5027   -3.7440 H         1 <0>         0.0743
     20 O2          4.6635   -0.9173   -4.5100 O.3       1 <0>        -0.3743
     21 C14         4.0067    1.4049   -4.3795 C.3       1 <0>         0.1020
     22 O3          4.5556    1.7142   -5.6621 O.3       1 <0>        -0.5984
     23 O4          2.9134   -0.2868   -2.3537 O.3       1 <0>        -0.2995
     24 C15         2.1942    0.1136   -1.1856 C.3       1 <0>         0.2623
     25 H6          2.7795   -0.2052   -0.3105 H         1 <0>         0.0695
     26 C16         0.7862   -0.4864   -1.2223 C.3       1 <0>         0.1236
     27 H7          0.8182   -1.5847   -1.2734 H         1 <0>         0.0703
     28 C17         0.0021   -0.0041    0.0020 C.3       1 <0>         0.0927
     29 H8          0.4217   -0.4077    0.9353 H         1 <0>         0.0713
     30 C18        -0.0187    1.5275    0.0104 C.3       1 <0>         0.0679
     31 H9         -0.5819    1.9181    0.8708 H         1 <0>         0.0613
     32 C19         1.4204    2.0497   -0.0005 C.3       1 <0>         0.0743
     33 H10         1.9845    1.6858    0.8709 H         1 <0>         0.0665
     34 O5          2.1023    1.5392   -1.1479 O.3       1 <0>        -0.3847
     35 C20         1.4080    3.5788   -0.0528 C.3       1 <0>         0.0938
     36 O6          2.7456    4.0699    0.0543 O.3       1 <0>        -0.5941
     37 O7         -0.7077    2.0022   -1.1480 O.3       1 <0>        -0.5525
     38 O8         -1.3366   -0.5000   -0.0619 O.3       1 <0>        -0.5829
     39 O9          0.1185   -0.0651   -2.4134 O.3       1 <0>        -0.5493
     40 O10         4.5618   -1.4278   -0.4001 O.3       1 <0>        -0.5875
     41 O11         3.5402   -2.7526   -2.6444 O.3       1 <0>        -0.5458
     42 H11         4.9705   -4.3851  -11.4032 H         1 <0>         0.0616
     43 H12         6.5193   -4.0771  -12.2593 H         1 <0>         0.0599
     44 H13         6.5730   -6.2596  -11.0627 H         1 <0>         0.0613
     45 H14         7.7689   -5.1117  -10.3708 H         1 <0>         0.0608
     46 H15         4.9618   -5.6682   -9.2593 H         1 <0>         0.0637
     47 H16         6.5044   -6.2825   -8.5740 H         1 <0>         0.0622
     48 H17         7.2778   -3.9430   -8.2178 H         1 <0>         0.0702
     49 H18         4.4793   -3.2168   -9.2501 H         1 <0>         0.0640
     50 H19         5.6749   -2.0686   -8.5581 H         1 <0>         0.0649
     51 H20         7.2865   -2.6601  -10.3614 H         1 <0>         0.0603
     52 H21         5.7440   -2.0457  -11.0467 H         1 <0>         0.0614
     53 H22         4.4567   -4.4105   -7.1041 H         1 <0>         0.0733
     54 H23         5.9508   -5.1688   -6.4566 H         1 <0>         0.0694
     55 H24         6.9071   -2.9121   -6.0198 H         1 <0>         0.0454
     56 H25         5.4130   -2.1536   -6.6673 H         1 <0>         0.0651
     57 H26         2.9602    1.0867   -4.4956 H         1 <0>         0.0679
     58 H27         4.0495    2.2971   -3.7375 H         1 <0>         0.0565
     59 H28         4.1037    2.5063   -6.2773 H         1 <0>         0.4099
     60 H29         0.9712    3.9095   -1.0067 H         1 <0>         0.0572
     61 H30         0.8061    3.9694    0.7810 H         1 <0>         0.0578
     62 H31         2.9370    5.1530    0.0357 H         1 <0>         0.4135
     63 H32        -0.8237    3.0833   -1.3144 H         1 <0>         0.3953
     64 H33        -2.0525   -0.2552    0.7366 H         1 <0>         0.4128
     65 H34        -0.9102   -0.3986   -2.6145 H         1 <0>         0.4068
     66 H35         4.5922   -0.6578    0.3848 H         1 <0>         0.4095
     67 H36         3.0156   -3.0332   -1.7191 H         1 <0>         0.3999
@<TRIPOS>BOND
     1    1    6 1
     2    1    2 1
     3    1   42 1
     4    1   43 1
     5    2    3 1
     6    2   44 1
     7    2   45 1
     8    3    4 1
     9    3   46 1
    10    3   47 1
    11    4    5 1
    12    4    7 1
    13    4   48 1
    14    5    6 1
    15    5   49 1
    16    5   50 1
    17    6   51 1
    18    6   52 1
    19    7    8 1
    20    7   53 1
    21    7   54 1
    22    8    9 1
    23    8   55 1
    24    8   56 1
    25    9   10 1
    26   10   11 1
    27   10   20 1
    28   10   12 1
    29   12   13 1
    30   12   14 1
    31   12   41 1
    32   14   15 1
    33   14   16 1
    34   14   40 1
    35   16   17 1
    36   16   18 1
    37   16   23 1
    38   18   19 1
    39   18   20 1
    40   18   21 1
    41   21   22 1
    42   21   57 1
    43   21   58 1
    44   22   59 1
    45   23   24 1
    46   24   25 1
    47   24   34 1
    48   24   26 1
    49   26   27 1
    50   26   28 1
    51   26   39 1
    52   28   29 1
    53   28   30 1
    54   28   38 1
    55   30   31 1
    56   30   32 1
    57   30   37 1
    58   32   33 1
    59   32   34 1
    60   32   35 1
    61   35   36 1
    62   35   60 1
    63   35   61 1
    64   36   62 1
    65   37   63 1
    66   38   64 1
    67   39   65 1
    68   40   66 1
    69   41   67 1
@<TRIPOS>MOLECULE
ZINC19323015
   52    54     0     0     0
SMALL
USER_CHARGES

@<TRIPOS>ATOM
      1 C1         -0.0496    1.5390   -0.0318 C.3       1 <0>        -0.1386
      2 C2         -0.0296    0.0092   -0.0236 C.3       1 <0>        -0.0996
      3 C3          0.7218   -0.5126   -1.2528 C.3       1 <0>         0.0016
      4 N1          0.7122   -1.9789   -1.2495 N.4       1 <0>        -0.4030
      5 C4          1.4178   -2.4882   -0.0694 C.3       1 <0>        -0.0088
      6 C5          0.6905   -2.0340    1.2007 C.3       1 <0>        -0.1417
      7 C6          0.6774   -0.5005    1.2392 C.3       1 <0>         0.1181
      8 O1         -0.0187   -0.0406    2.3993 O.3       1 <0>        -0.5414
      9 C7         -0.7569   -2.5372    1.1432 C.3       1 <0>         0.0449
     10 N2         -1.3901   -2.0185   -0.0790 N.3       1 <0>        -0.4850
     11 C8         -1.4633   -0.5352   -0.0365 C.3       1 <0>         0.0490
     12 C9         -0.6658   -2.4776   -1.2722 C.3       1 <0>         0.1595
     13 C10        -0.6512   -4.0073   -1.2993 C.3       1 <0>         0.0707
     14 H1         -0.1233   -4.3812   -0.4221 H         1 <0>         0.1308
     15 C11         0.0598   -4.4882   -2.5659 C.3       1 <0>         0.0347
     16 H2          1.1077   -4.1904   -2.5296 H         1 <0>         0.1042
     17 C12        -0.0343   -6.0126   -2.6560 C.3       1 <0>         0.0566
     18 H3         -1.0822   -6.3104   -2.6923 H         1 <0>         0.1190
     19 C13         0.6767   -6.4935   -3.9225 C.3       1 <0>         0.0832
     20 H4          1.7246   -6.1957   -3.8862 H         1 <0>         0.1052
     21 C14         0.5825   -8.0179   -4.0127 C.3       1 <0>         0.0437
     22 O2          1.3444   -8.4769   -5.1311 O.3       1 <0>        -0.5650
     23 O3          0.0549   -5.9092   -5.0689 O.3       1 <0>        -0.5290
     24 O4          0.5875   -6.5969   -1.5097 O.3       1 <0>        -0.5382
     25 O5         -0.5620   -3.9039   -3.7122 O.3       1 <0>        -0.5291
     26 O6         -1.9938   -4.4967   -1.2918 O.3       1 <0>        -0.5058
     27 C15         1.4032   -2.5835    2.4380 C.3       1 <0>        -0.1476
     28 H5          0.9730    1.9159   -0.0169 H         1 <0>         0.0693
     29 H6         -0.5535    1.8910   -0.9320 H         1 <0>         0.0716
     30 H7         -0.5827    1.9001    0.8477 H         1 <0>         0.0884
     31 H8          0.2349   -0.1484   -2.1575 H         1 <0>         0.1398
     32 H9          1.7517   -0.1563   -1.2269 H         1 <0>         0.1345
     33 H10         1.4429   -3.5773   -0.1034 H         1 <0>         0.1322
     34 H11         2.4372   -2.1022   -0.0615 H         1 <0>         0.1353
     35 H12         1.7043   -0.1354    1.2577 H         1 <0>         0.0752
     36 H13         0.3760   -0.3274    3.2342 H         1 <0>         0.3920
     37 H14        -0.7644   -3.6270    1.1244 H         1 <0>         0.1023
     38 H15        -1.3026   -2.1809    2.0169 H         1 <0>         0.1167
     39 H16        -1.9881   -0.2039    0.8595 H         1 <0>         0.1220
     40 H17        -1.9840   -0.1726   -0.9228 H         1 <0>         0.0993
     41 H18        -1.1693   -2.1073   -2.1652 H         1 <0>         0.1558
     42 H19         0.9767   -8.4610   -3.0981 H         1 <0>         0.0633
     43 H20        -0.4598   -8.3108   -4.1383 H         1 <0>         0.0506
     44 H21         1.3299   -9.4365   -5.2497 H         1 <0>         0.3878
     45 H22        -0.8811   -6.1321   -5.1650 H         1 <0>         0.3732
     46 H23         1.5235   -6.3740   -1.4135 H         1 <0>         0.3778
     47 H24        -1.4980   -4.1268   -3.8083 H         1 <0>         0.3847
     48 H25        -2.5038   -4.2581   -2.0780 H         1 <0>         0.3814
     49 H26         2.4284   -2.2140    2.4609 H         1 <0>         0.0742
     50 H27         0.8786   -2.2552    3.3353 H         1 <0>         0.0820
     51 H28         1.4103   -3.6728    2.3994 H         1 <0>         0.0780
     52 H29         1.1926   -2.3102   -2.0726 H         1 <0>         0.4243
@<TRIPOS>BOND
     1    1    2 1
     2    1   28 1
     3    1   29 1
     4    1   30 1
     5    2    7 1
     6    2   11 1
     7    2    3 1
     8    3    4 1
     9    3   31 1
    10    3   32 1
    11    4   12 1
    12    4    5 1
    13    4   52 1
    14    5    6 1
    15    5   33 1
    16    5   34 1
    17    6    7 1
    18    6    9 1
    19    6   27 1
    20    7    8 1
    21    7   35 1
    22    8   36 1
    23    9   10 1
    24    9   37 1
    25    9   38 1
    26   10   11 1
    27   10   12 1
    28   11   39 1
    29   11   40 1
    30   12   13 1
    31   12   41 1
    32   13   14 1
    33   13   15 1
    34   13   26 1
    35   15   16 1
    36   15   17 1
    37   15   25 1
    38   17   18 1
    39   17   19 1
    40   17   24 1
    41   19   20 1
    42   19   21 1
    43   19   23 1
    44   21   22 1
    45   21   42 1
    46   21   43 1
    47   22   44 1
    48   23   45 1
    49   24   46 1
    50   25   47 1
    51   26   48 1
    52   27   49 1
    53   27   50 1
    54   27   51 1
@<TRIPOS>MOLECULE
ZINC43537003
   66    66     0     0     0
SMALL
USER_CHARGES

@<TRIPOS>ATOM
      1 C1         -1.7930   -2.5801   -0.1781 C.3       1 <0>        -0.1558
      2 C2         -2.8820   -3.0919   -1.1232 C.3       1 <0>        -0.0940
      3 C3         -3.7124   -4.1623   -0.4123 C.3       1 <0>        -0.1509
      4 C4         -3.7898   -1.9302   -1.5320 C.3       1 <0>        -0.1217
      5 C5         -2.9857   -0.9184   -2.3511 C.3       1 <0>         0.1213
      6 H1         -2.1092   -0.6061   -1.7835 H         1 <0>         0.1223
      7 C6         -3.8453    0.2829   -2.6493 C.2       1 <0>         0.5121
      8 O1         -4.0780    0.5918   -3.7988 O.2       1 <0>        -0.5413
      9 N1         -4.3554    1.0142   -1.6386 N.am      1 <0>        -0.8498
     10 N2         -2.5584   -1.5373   -3.6083 N.am      1 <0>        -0.6922
     11 C7         -1.4661   -1.0763   -4.2492 C.2       1 <0>         0.4942
     12 O2         -0.8369   -0.1491   -3.7851 O.2       1 <0>        -0.5176
     13 C8         -1.0265   -1.7130   -5.5425 C.3       1 <0>         0.1348
     14 C9         -1.8815   -1.1756   -6.6919 C.3       1 <0>        -0.1149
     15 C10        -1.7122    0.3420   -6.7871 C.3       1 <0>         0.1574
     16 H2         -2.0302    0.8025   -5.8517 H         1 <0>         0.1167
     17 C11        -0.2417    0.6759   -7.0460 C.3       1 <0>         0.1070
     18 H3          0.0762    0.2155   -7.9814 H         1 <0>         0.0603
     19 C12         0.6132    0.1386   -5.8966 C.3       1 <0>         0.0538
     20 H4          0.2953    0.5991   -4.9612 H         1 <0>         0.1182
     21 C13         0.4440   -1.3790   -5.8013 C.3       1 <0>        -0.1680
     22 O3          1.9867    0.4505   -6.1383 O.3       1 <0>        -0.5677
     23 O4         -0.0837    2.0934   -7.1350 O.3       1 <0>        -0.5480
     24 N3         -2.5309    0.8565   -7.8877 N.am      1 <0>        -0.6974
     25 C14        -2.9528    2.1365   -7.8725 C.2       1 <0>         0.5126
     26 O5         -2.6547    2.8623   -6.9478 O.2       1 <0>        -0.4898
     27 C15        -3.7949    2.6658   -9.0047 C.3       1 <0>         0.0058
     28 H5         -4.5146    1.9055   -9.3084 H         1 <0>         0.1590
     29 C16        -2.8934    3.0171  -10.1899 C.3       1 <0>        -0.1067
     30 C17        -3.7576    3.4256  -11.3845 C.3       1 <0>        -0.1664
     31 C18        -1.9740    4.1779   -9.8049 C.3       1 <0>        -0.1788
     32 N4         -4.5115    3.8689   -8.5610 N.4       1 <0>        -0.4932
     33 C19        -5.4536    3.5115   -7.4921 C.3       1 <0>        -0.0552
     34 O6         -1.1846   -3.1304   -5.4535 O.3       1 <0>        -0.5403
     35 H6         -1.1463   -3.4078    0.1131 H         1 <0>         0.0613
     36 H7         -1.2014   -1.8175   -0.6846 H         1 <0>         0.0543
     37 H8         -2.2556   -2.1504    0.7104 H         1 <0>         0.0596
     38 H9         -2.4194   -3.5216   -2.0118 H         1 <0>         0.0738
     39 H10        -4.1750   -3.7327    0.4762 H         1 <0>         0.0581
     40 H11        -4.4882   -4.5270   -1.0856 H         1 <0>         0.0566
     41 H12        -3.0657   -4.9900   -0.1211 H         1 <0>         0.0608
     42 H13        -4.6165   -2.3091   -2.1329 H         1 <0>         0.0785
     43 H14        -4.1826   -1.4444   -0.6389 H         1 <0>         0.0877
     44 H15        -4.1693    0.7672   -0.7192 H         1 <0>         0.4045
     45 H16        -4.9087    1.7874   -1.8305 H         1 <0>         0.4039
     46 H17        -3.0616   -2.2789   -3.9794 H         1 <0>         0.4113
     47 H18        -1.5635   -1.6361   -7.6273 H         1 <0>         0.0979
     48 H19        -2.9291   -1.4135   -6.5075 H         1 <0>         0.0963
     49 H20         1.0531   -1.7619   -4.9824 H         1 <0>         0.0831
     50 H21         0.7619   -1.8395   -6.7367 H         1 <0>         0.0920
     51 H22         2.5881    0.1391   -5.4481 H         1 <0>         0.3885
     52 H23         0.8259    2.3782   -7.2985 H         1 <0>         0.3865
     53 H24        -2.7693    0.2760   -8.6274 H         1 <0>         0.4061
     54 H25        -2.2904    2.1494  -10.4575 H         1 <0>         0.1201
     55 H26        -4.3606    4.2933  -11.1170 H         1 <0>         0.0550
     56 H27        -3.1153    3.6759  -12.2289 H         1 <0>         0.0893
     57 H28        -4.4126    2.5986  -11.6588 H         1 <0>         0.0754
     58 H29        -1.4319    3.9251   -8.8937 H         1 <0>         0.0852
     59 H30        -1.2639    4.3617  -10.6111 H         1 <0>         0.0882
     60 H31        -2.5714    5.0737   -9.6356 H         1 <0>         0.0549
     61 H32        -3.8490    4.5458   -8.2130 H         1 <0>         0.4360
     62 H33        -6.0609    4.3801   -7.2375 H         1 <0>         0.1315
     63 H34        -6.1005    2.7033   -7.8332 H         1 <0>         0.1226
     64 H35        -4.8985    3.1859   -6.6123 H         1 <0>         0.1317
     65 H36        -0.6699   -3.5398   -4.7445 H         1 <0>         0.3917
     66 H37        -5.0190    4.2640   -9.3384 H         1 <0>         0.4317
@<TRIPOS>BOND
     1    1    2 1
     2    1   35 1
     3    1   36 1
     4    1   37 1
     5    2    3 1
     6    2    4 1
     7    2   38 1
     8    3   39 1
     9    3   40 1
    10    3   41 1
    11    4    5 1
    12    4   42 1
    13    4   43 1
    14    5    6 1
    15    5    7 1
    16    5   10 1
    17    7    8 2
    18    7    9 am
    19    9   44 1
    20    9   45 1
    21   10   11 am
    22   10   46 1
    23   11   12 2
    24   11   13 1
    25   13   21 1
    26   13   14 1
    27   13   34 1
    28   14   15 1
    29   14   47 1
    30   14   48 1
    31   15   16 1
    32   15   17 1
    33   15   24 1
    34   17   18 1
    35   17   19 1
    36   17   23 1
    37   19   20 1
    38   19   21 1
    39   19   22 1
    40   21   49 1
    41   21   50 1
    42   22   51 1
    43   23   52 1
    44   24   25 am
    45   24   53 1
    46   25   26 2
    47   25   27 1
    48   27   28 1
    49   27   29 1
    50   27   32 1
    51   29   30 1
    52   29   31 1
    53   29   54 1
    54   30   55 1
    55   30   56 1
    56   30   57 1
    57   31   58 1
    58   31   59 1
    59   31   60 1
    60   32   33 1
    61   32   61 1
    62   32   66 1
    63   33   62 1
    64   33   63 1
    65   33   64 1
    66   34   65 1
@<TRIPOS>MOLECULE
ZINC08791254
   61    65     0     0     0
SMALL
USER_CHARGES
3-[(4-methoxyphenyl)methyl-methyl-trioxo-BLAHyl]propanamide
@<TRIPOS>ATOM
      1 C1          3.1401    6.8738    9.7797 C.3       1 <0>        -0.1284
      2 C2          3.5138    7.4788    8.4511 C.ar      1 <0>        -0.0838
      3 C3          4.5629    8.3717    8.3727 C.ar      1 <0>        -0.0477
      4 C4          4.9135    8.9321    7.1584 C.ar      1 <0>        -0.1196
      5 C5          4.2085    8.5963    6.0157 C.ar      1 <0>        -0.0497
      6 C6          3.1609    7.7062    6.0892 C.ar      1 <0>        -0.1978
      7 C7          2.7990    7.1355    7.3063 C.ar      1 <0>         0.1688
      8 N1          1.7160    6.2712    7.1312 N.am      1 <0>        -0.6394
      9 C8          1.3107    6.2183    5.8476 C.2       1 <0>         0.5243
     10 O1          0.3971    5.5557    5.4035 O.2       1 <0>        -0.4171
     11 C9          2.2116    7.1396    5.0719 C.3       1 <0>         0.0930
     12 C10         1.4135    8.2454    4.3703 C.3       1 <0>        -0.1202
     13 H1          1.3329    9.1507    4.9720 H         1 <0>         0.1824
     14 C11         2.1637    8.4768    3.0288 C.3       1 <0>        -0.1342
     15 H2          2.4725    9.5130    2.8906 H         1 <0>         0.1853
     16 C12         3.3501    7.4905    3.0623 C.3       1 <0>         0.0415
     17 H3          4.2471    7.9886    3.4302 H         1 <0>         0.1721
     18 C13         3.5970    6.9076    1.6694 C.3       1 <0>        -0.1309
     19 C14         4.8508    6.0311    1.6983 C.3       1 <0>        -0.1578
     20 C15         5.0940    5.4569    0.3263 C.2       1 <0>         0.5140
     21 O2          4.3389    5.7227   -0.5849 O.2       1 <0>        -0.5257
     22 N2          6.1506    4.6482    0.1119 N.am      1 <0>        -0.8515
     23 C16         1.1658    8.0231    1.9880 C.2       1 <0>         0.5147
     24 O3          1.3525    8.0265    0.7902 O.2       1 <0>        -0.4256
     25 N3          0.0443    7.6174    2.5945 N.am      1 <0>        -0.5601
     26 C17         0.0709    7.7070    3.9291 C.2       1 <0>         0.5149
     27 O4         -0.8390    7.4020    4.6698 O.2       1 <0>        -0.4161
     28 C18        -1.1203    7.1215    1.8569 C.3       1 <0>         0.1469
     29 C19        -1.0029    5.6299    1.6768 C.ar      1 <0>        -0.1738
     30 C20        -1.5309    4.7762    2.6277 C.ar      1 <0>        -0.0440
     31 C21        -1.4246    3.4085    2.4649 C.ar      1 <0>        -0.1554
     32 C22        -0.7874    2.8918    1.3462 C.ar      1 <0>         0.1458
     33 C23        -0.2533    3.7505    0.3964 C.ar      1 <0>        -0.2144
     34 C24        -0.3677    5.1174    0.5608 C.ar      1 <0>        -0.0545
     35 O5         -0.6816    1.5467    1.1837 O.3       1 <0>        -0.3137
     36 C25        -0.0127    1.0858    0.0080 C.3       1 <0>         0.0248
     37 H4          3.6988    5.9497    9.9282 H         1 <0>         0.0839
     38 H5          3.3795    7.5755   10.5787 H         1 <0>         0.0856
     39 H6          2.0716    6.6586    9.7933 H         1 <0>         0.0687
     40 H7          5.1131    8.6339    9.2643 H         1 <0>         0.1490
     41 H8          5.7357    9.6300    7.1016 H         1 <0>         0.1488
     42 H9          4.4806    9.0325    5.0658 H         1 <0>         0.1381
     43 H10         1.3038    5.7673    7.8503 H         1 <0>         0.4365
     44 H11         2.7393    6.3051    1.3703 H         1 <0>         0.1016
     45 H12         3.7375    7.7192    0.9555 H         1 <0>         0.1420
     46 H13         5.7085    6.6335    1.9973 H         1 <0>         0.1150
     47 H14         4.7103    5.2194    2.4121 H         1 <0>         0.0890
     48 H15         6.7545    4.4357    0.8406 H         1 <0>         0.4037
     49 H16         6.3072    4.2787   -0.7712 H         1 <0>         0.4108
     50 H17        -1.1637    7.6031    0.8801 H         1 <0>         0.1112
     51 H18        -2.0281    7.3497    2.4153 H         1 <0>         0.1101
     52 H19        -2.0273    5.1790    3.4982 H         1 <0>         0.1344
     53 H20        -1.8376    2.7421    3.2077 H         1 <0>         0.1345
     54 H21         0.2472    3.3507   -0.4731 H         1 <0>         0.1326
     55 H22         0.0434    5.7862   -0.1809 H         1 <0>         0.1315
     56 H23         0.0021   -0.0041    0.0020 H         1 <0>         0.1060
     57 H24         1.0099    1.4631    0.0003 H         1 <0>         0.0554
     58 H25        -0.5399    1.4469   -0.8751 H         1 <0>         0.0605
     59 N4          2.9239    6.4555    4.0068 N.4       1 <0>        -0.4993
     60 H26         2.3043    5.7827    3.5403 H         1 <0>         0.4374
     61 H27         3.7411    5.9626    4.3857 H         1 <0>         0.4460
@<TRIPOS>BOND
     1    1    2 1
     2    1   37 1
     3    1   38 1
     4    1   39 1
     5    2    7 ar
     6    2    3 ar
     7    3    4 ar
     8    3   40 1
     9    4    5 ar
    10    4   41 1
    11    5    6 ar
    12    5   42 1
    13    6   11 1
    14    6    7 ar
    15    7    8 1
    16    8    9 am
    17    8   43 1
    18    9   10 2
    19    9   11 1
    20   11   12 1
    21   11   59 1
    22   12   13 1
    23   12   26 1
    24   12   14 1
    25   14   15 1
    26   14   16 1
    27   14   23 1
    28   16   17 1
    29   16   18 1
    30   16   59 1
    31   18   19 1
    32   18   44 1
    33   18   45 1
    34   19   20 1
    35   19   46 1
    36   19   47 1
    37   20   21 2
    38   20   22 am
    39   22   48 1
    40   22   49 1
    41   23   24 2
    42   23   25 am
    43   25   26 am
    44   25   28 1
    45   26   27 2
    46   28   29 1
    47   28   50 1
    48   28   51 1
    49   29   34 ar
    50   29   30 ar
    51   30   31 ar
    52   30   52 1
    53   31   32 ar
    54   31   53 1
    55   32   33 ar
    56   32   35 1
    57   33   34 ar
    58   33   54 1
    59   34   55 1
    60   35   36 1
    61   36   56 1
    62   36   57 1
    63   36   58 1
    64   59   60 1
    65   59   61 1
@<TRIPOS>MOLECULE
ZINC35877569
   63    66     0     0     0
SMALL
USER_CHARGES

@<TRIPOS>ATOM
      1 C1          0.8820   -0.5919    0.9504 C.3       1 <0>        -0.1535
      2 C2          0.6437   -1.5170   -0.2446 C.3       1 <0>         0.0609
      3 O1         -0.6778   -2.0563   -0.1734 O.3       1 <0>        -0.3483
      4 C3         -1.0493   -2.8970   -1.1588 C.2       1 <0>         0.5072
      5 O2         -0.2726   -3.1649   -2.0539 O.2       1 <0>        -0.5003
      6 C4         -2.3986   -3.4920   -1.1507 C.ar      1 <0>        -0.1302
      7 C5         -3.2956   -3.1804   -0.1246 C.ar      1 <0>        -0.0390
      8 C6         -4.5544   -3.7372   -0.1205 C.ar      1 <0>        -0.1288
      9 C7         -4.9344   -4.6096   -1.1357 C.ar      1 <0>         0.1674
     10 C8         -4.0441   -4.9224   -2.1583 C.ar      1 <0>        -0.1516
     11 C9         -2.7858   -4.3644   -2.1722 C.ar      1 <0>        -0.0327
     12 N1         -6.2100   -5.1721   -1.1281 N.am      1 <0>        -0.6627
     13 C10        -6.7970   -5.4952    0.0413 C.2       1 <0>         0.5054
     14 O3         -6.2503   -5.2246    1.0894 O.2       1 <0>        -0.4672
     15 C11        -8.1328   -6.1929    0.0464 C.3       1 <0>        -0.1058
     16 H1         -8.6965   -5.9380   -0.8510 H         1 <0>         0.1450
     17 C12        -8.9354   -5.8102    1.3133 C.3       1 <0>        -0.1263
     18 C13        -9.6091   -7.1472    1.7143 C.3       1 <0>        -0.0040
     19 H2        -10.5076   -7.3179    1.1213 H         1 <0>         0.1624
     20 N2         -8.5707   -8.1633    1.3972 N.4       1 <0>        -0.4969
     21 C14        -7.9415   -7.7109    0.1431 C.3       1 <0>         0.0979
     22 C15        -8.5384   -8.4090   -1.0489 C.ar      1 <0>        -0.2104
     23 C16        -9.8131   -8.4731   -1.5658 C.ar      1 <0>        -0.0435
     24 C17       -10.0611   -9.2187   -2.7047 C.ar      1 <0>        -0.1234
     25 C18        -9.0261   -9.8978   -3.3215 C.ar      1 <0>        -0.0086
     26 C19        -7.7477   -9.8355   -2.8073 C.ar      1 <0>        -0.0887
     27 C20        -7.4893   -9.0866   -1.6614 C.ar      1 <0>         0.1702
     28 N3         -6.3008   -8.8702   -0.9614 N.am      1 <0>        -0.6413
     29 C21        -6.4792   -8.0737    0.1090 C.2       1 <0>         0.5095
     30 O4         -5.6271   -7.7168    0.8948 O.2       1 <0>        -0.4179
     31 C22        -6.6273  -10.5794   -3.4873 C.3       1 <0>        -0.1303
     32 C23        -9.2966  -10.7104   -4.5616 C.3       1 <0>        -0.1357
     33 C24        -9.9406   -7.1576    3.2080 C.3       1 <0>         0.0932
     34 H3        -10.7082   -6.4119    3.4149 H         1 <0>         0.1525
     35 C25       -10.4543   -8.5425    3.6068 C.3       1 <0>        -0.2082
     36 O5         -8.7642   -6.8513    3.9591 O.3       1 <0>        -0.5304
     37 H4          1.8900   -0.1805    0.8961 H         1 <0>         0.0835
     38 H5          0.1563    0.2212    0.9309 H         1 <0>         0.0679
     39 H6          0.7696   -1.1571    1.8756 H         1 <0>         0.0676
     40 H7          0.7560   -0.9518   -1.1698 H         1 <0>         0.0710
     41 H8          1.3694   -2.3300   -0.2251 H         1 <0>         0.0705
     42 H9         -3.0011   -2.5038    0.6641 H         1 <0>         0.1468
     43 H10        -5.2479   -3.4969    0.6718 H         1 <0>         0.1475
     44 H11        -4.3421   -5.6005   -2.9443 H         1 <0>         0.1348
     45 H12        -2.0969   -4.6038   -2.9688 H         1 <0>         0.1465
     46 H13        -6.6751   -5.3308   -1.9644 H         1 <0>         0.4149
     47 H14        -8.2683   -5.4626    2.1021 H         1 <0>         0.1352
     48 H15        -9.6859   -5.0547    1.0808 H         1 <0>         0.1344
     49 H16        -7.8856   -8.2040    2.1369 H         1 <0>         0.4273
     50 H17       -10.6193   -7.9419   -1.0819 H         1 <0>         0.1387
     51 H18       -11.0604   -9.2704   -3.1109 H         1 <0>         0.1481
     52 H19        -5.4454   -9.2497   -1.2170 H         1 <0>         0.4347
     53 H20        -6.1632   -9.9344   -4.2334 H         1 <0>         0.0848
     54 H21        -5.8832  -10.8720   -2.7464 H         1 <0>         0.0670
     55 H22        -7.0252  -11.4700   -3.9739 H         1 <0>         0.0886
     56 H23        -9.1680  -10.0820   -5.4429 H         1 <0>         0.0898
     57 H24        -8.5994  -11.5470   -4.6070 H         1 <0>         0.0829
     58 H25       -10.3180  -11.0898   -4.5317 H         1 <0>         0.0819
     59 H26        -9.6866   -9.2882    3.3998 H         1 <0>         0.0542
     60 H27       -10.6904   -8.5499    4.6709 H         1 <0>         0.0982
     61 H28       -11.3516   -8.7761    3.0338 H         1 <0>         0.0880
     62 H29        -8.0377   -7.4750    3.8238 H         1 <0>         0.3708
     63 H30        -8.9973   -9.0681    1.2654 H         1 <0>         0.4386
@<TRIPOS>BOND
     1    1    2 1
     2    1   37 1
     3    1   38 1
     4    1   39 1
     5    2    3 1
     6    2   40 1
     7    2   41 1
     8    3    4 1
     9    4    5 2
    10    4    6 1
    11    6   11 ar
    12    6    7 ar
    13    7    8 ar
    14    7   42 1
    15    8    9 ar
    16    8   43 1
    17    9   10 ar
    18    9   12 1
    19   10   11 ar
    20   10   44 1
    21   11   45 1
    22   12   13 am
    23   12   46 1
    24   13   14 2
    25   13   15 1
    26   15   16 1
    27   15   21 1
    28   15   17 1
    29   17   18 1
    30   17   47 1
    31   17   48 1
    32   18   19 1
    33   18   20 1
    34   18   33 1
    35   20   21 1
    36   20   49 1
    37   20   63 1
    38   21   29 1
    39   21   22 1
    40   22   27 ar
    41   22   23 ar
    42   23   24 ar
    43   23   50 1
    44   24   25 ar
    45   24   51 1
    46   25   26 ar
    47   25   32 1
    48   26   27 ar
    49   26   31 1
    50   27   28 1
    51   28   29 am
    52   28   52 1
    53   29   30 2
    54   31   53 1
    55   31   54 1
    56   31   55 1
    57   32   56 1
    58   32   57 1
    59   32   58 1
    60   33   34 1
    61   33   35 1
    62   33   36 1
    63   35   59 1
    64   35   60 1
    65   35   61 1
    66   36   62 1
@<TRIPOS>MOLECULE
ZINC43213893
   54    55     0     0     0
SMALL
USER_CHARGES

@<TRIPOS>ATOM
      1 C1         -0.0187    1.5258    0.0104 C.3       1 <0>        -0.1519
      2 C2          0.0021   -0.0041    0.0020 C.3       1 <0>        -0.1146
      3 C3          0.7421   -0.5109    1.2415 C.3       1 <0>        -0.1707
      4 C4         -1.4333   -0.5336    0.0129 C.3       1 <0>         0.1524
      5 H1         -1.9435   -0.1821    0.9097 H         1 <0>         0.1825
      6 C5         -2.1622   -0.0344   -1.2080 C.2       1 <0>         0.1185
      7 N1         -3.0500    0.9142   -1.2187 N.2       1 <0>        -0.3996
      8 C6         -3.4835    1.0849   -2.4971 C.2       1 <0>        -0.0620
      9 C7         -2.8123    0.1883   -3.2703 C.2       1 <0>         0.0648
     10 O1         -1.9927   -0.4950   -2.4555 O.3       1 <0>        -0.1955
     11 C8         -4.4909    2.0576   -2.9579 C.2       1 <0>         0.5964
     12 O2         -4.7919    2.1098   -4.1350 O.2       1 <0>        -0.5159
     13 N2         -5.0783    2.8889   -2.0746 N.am      1 <0>        -0.7083
     14 C9         -6.0794    3.8556   -2.5324 C.3       1 <0>         0.1194
     15 C10        -6.5847    4.6700   -1.3399 C.3       1 <0>        -0.1445
     16 C11        -7.6303    5.6795   -1.8181 C.3       1 <0>         0.1394
     17 N3         -8.1141    6.4594   -0.6762 N.am      1 <0>        -0.7115
     18 C12        -9.0464    7.4153   -0.8596 C.2       1 <0>         0.6472
     19 O3         -9.4856    7.6303   -1.9720 O.2       1 <0>        -0.5651
     20 O4         -9.4911    8.1321    0.1898 O.3       1 <0>        -0.3595
     21 C13       -10.4795    9.1288   -0.0775 C.3       1 <0>         0.1289
     22 C14       -10.8529    9.8231    1.2069 C.ar      1 <0>        -0.1030
     23 C15       -11.8848    9.3309    1.9840 C.ar      1 <0>        -0.0938
     24 C16       -12.2273    9.9678    3.1621 C.ar      1 <0>        -0.1229
     25 C17       -11.5376   11.0966    3.5633 C.ar      1 <0>        -0.1059
     26 C18       -10.5052   11.5883    2.7867 C.ar      1 <0>        -0.1228
     27 C19       -10.1599   10.9490    1.6107 C.ar      1 <0>        -0.0938
     28 N4         -1.4134   -2.0025    0.0048 N.4       1 <0>        -0.6372
     29 H2          1.0039    1.9031    0.0027 H         1 <0>         0.0845
     30 H3         -0.5459    1.8868   -0.8726 H         1 <0>         0.0638
     31 H4         -0.5289    1.8773    0.9072 H         1 <0>         0.0753
     32 H5          0.5123   -0.3556   -0.8948 H         1 <0>         0.1038
     33 H6          0.2319   -0.1594    2.1383 H         1 <0>         0.0800
     34 H7          0.7568   -1.6008    1.2356 H         1 <0>         0.0570
     35 H8          1.7647   -0.1336    1.2338 H         1 <0>         0.0938
     36 H9         -2.9162    0.0547   -4.3369 H         1 <0>         0.2489
     37 H10        -4.8382    2.8473   -1.1357 H         1 <0>         0.4094
     38 H11        -5.6293    4.5252   -3.2653 H         1 <0>         0.0822
     39 H12        -6.9143    3.3248   -2.9899 H         1 <0>         0.0820
     40 H13        -7.0348    4.0004   -0.6071 H         1 <0>         0.0819
     41 H14        -5.7498    5.2008   -0.8825 H         1 <0>         0.0823
     42 H15        -7.1802    6.3492   -2.5509 H         1 <0>         0.0785
     43 H16        -8.4652    5.1488   -2.2756 H         1 <0>         0.0784
     44 H17        -7.7635    6.2878    0.2118 H         1 <0>         0.4079
     45 H18       -10.0790    9.8581   -0.7816 H         1 <0>         0.0796
     46 H19       -11.3640    8.6576   -0.5062 H         1 <0>         0.0796
     47 H20       -12.4235    8.4489    1.6705 H         1 <0>         0.1246
     48 H21       -13.0339    9.5836    3.7689 H         1 <0>         0.1271
     49 H22       -11.8057   11.5946    4.4834 H         1 <0>         0.1264
     50 H23        -9.9667   12.4705    3.1000 H         1 <0>         0.1272
     51 H24        -9.3509   11.3310    1.0058 H         1 <0>         0.1247
     52 H25        -0.9411   -2.3279   -0.8254 H         1 <0>         0.4407
     53 H26        -0.9254   -2.3367    0.8222 H         1 <0>         0.4466
     54 H27        -2.3600   -2.3517    0.0120 H         1 <0>         0.4430
@<TRIPOS>BOND
     1    1    2 1
     2    1   29 1
     3    1   30 1
     4    1   31 1
     5    2    3 1
     6    2    4 1
     7    2   32 1
     8    3   33 1
     9    3   34 1
    10    3   35 1
    11    4    5 1
    12    4    6 1
    13    4   28 1
    14    6   10 1
    15    6    7 2
    16    7    8 1
    17    8    9 2
    18    8   11 1
    19    9   10 1
    20    9   36 1
    21   11   12 2
    22   11   13 am
    23   13   14 1
    24   13   37 1
    25   14   15 1
    26   14   38 1
    27   14   39 1
    28   15   16 1
    29   15   40 1
    30   15   41 1
    31   16   17 1
    32   16   42 1
    33   16   43 1
    34   17   18 am
    35   17   44 1
    36   18   19 2
    37   18   20 1
    38   20   21 1
    39   21   22 1
    40   21   45 1
    41   21   46 1
    42   22   27 ar
    43   22   23 ar
    44   23   24 ar
    45   23   47 1
    46   24   25 ar
    47   24   48 1
    48   25   26 ar
    49   25   49 1
    50   26   27 ar
    51   26   50 1
    52   27   51 1
    53   28   52 1
    54   28   53 1
    55   28   54 1
@<TRIPOS>MOLECULE
ZINC54409650
   55    57     0     0     0
SMALL
USER_CHARGES

@<TRIPOS>ATOM
      1 C1         -0.0138    1.5571    0.0595 C.3       1 <0>        -0.1781
      2 C2          0.0118    0.0274    0.0440 C.3       1 <0>         0.0832
      3 H1          0.5352   -0.3362    0.9284 H         1 <0>         0.1441
      4 C3          0.7257   -0.4505   -1.1941 C.ar      1 <0>        -0.1392
      5 C4          0.0627   -0.4785   -2.4068 C.ar      1 <0>        -0.1234
      6 C5          0.7175   -0.9169   -3.5425 C.ar      1 <0>        -0.1037
      7 C6          2.0354   -1.3270   -3.4657 C.ar      1 <0>        -0.0927
      8 C7          2.6987   -1.2982   -2.2532 C.ar      1 <0>        -0.1042
      9 C8          2.0451   -0.8557   -1.1182 C.ar      1 <0>        -0.0896
     10 N1         -1.3648   -0.4854    0.0443 N.4       1 <0>        -0.3925
     11 C9         -1.3587   -1.9689    0.1173 C.3       1 <0>        -0.0007
     12 C10        -2.7683   -2.3026    0.6672 C.3       1 <0>        -0.1597
     13 C11        -3.0204   -1.1662    1.6846 C.3       1 <0>         0.1525
     14 H2         -2.7739   -1.4995    2.6927 H         1 <0>         0.1334
     15 C12        -2.0802   -0.0251    1.2541 C.3       1 <0>        -0.0170
     16 N2         -4.4169   -0.7282    1.6219 N.am      1 <0>        -0.7433
     17 C13        -5.3558   -1.3633    2.3511 C.2       1 <0>         0.7119
     18 O1         -5.0436   -2.2999    3.0610 O.2       1 <0>        -0.5587
     19 N3         -6.6406   -0.9603    2.2935 N.am      1 <0>        -0.6740
     20 C14        -7.6317   -1.6780    2.9776 C.ar      1 <0>         0.1736
     21 C15        -7.3423   -2.2756    4.1946 C.ar      1 <0>        -0.0993
     22 C16        -8.3210   -2.9833    4.8676 C.ar      1 <0>        -0.1030
     23 C17        -9.5902   -3.0980    4.3306 C.ar      1 <0>        -0.1065
     24 C18        -9.8882   -2.5053    3.1181 C.ar      1 <0>        -0.1172
     25 C19        -8.9136   -1.7881    2.4386 C.ar      1 <0>        -0.1254
     26 S1         -9.2922   -1.0251    0.8961 S.3       1 <0>        -0.0442
     27 C20       -11.0368   -1.4376    0.6190 C.3       1 <0>        -0.1503
     28 C21       -11.4939   -0.8371   -0.6855 C.2       1 <0>         0.5381
     29 O2        -10.7190   -0.1943   -1.3616 O.2       1 <0>        -0.5252
     30 N4        -12.7638   -1.0145   -1.1007 N.am      1 <0>        -0.8452
     31 H3          1.0077    1.9376    0.0593 H         1 <0>         0.1070
     32 H4         -0.5371    1.9207   -0.8248 H         1 <0>         0.0814
     33 H5         -0.5301    1.9028    0.9551 H         1 <0>         0.0841
     34 H6         -0.9669   -0.1581   -2.4669 H         1 <0>         0.1169
     35 H7          0.1994   -0.9394   -4.4899 H         1 <0>         0.1350
     36 H8          2.5468   -1.6701   -4.3529 H         1 <0>         0.1358
     37 H9          3.7282   -1.6189   -2.1930 H         1 <0>         0.1371
     38 H10         2.5644   -0.8297   -0.1716 H         1 <0>         0.1335
     39 H11        -1.2196   -2.4023   -0.8731 H         1 <0>         0.1373
     40 H12        -0.5860   -2.3172    0.8028 H         1 <0>         0.1382
     41 H13        -3.5098   -2.2769   -0.1313 H         1 <0>         0.1026
     42 H14        -2.7687   -3.2726    1.1643 H         1 <0>         0.1256
     43 H15        -1.3660    0.1876    2.0495 H         1 <0>         0.1481
     44 H16        -2.6613    0.8681    1.0246 H         1 <0>         0.1381
     45 H17        -4.6660    0.0189    1.0556 H         1 <0>         0.4030
     46 H18        -6.8795   -0.1737    1.7786 H         1 <0>         0.4104
     47 H19        -6.3521   -2.1885    4.6169 H         1 <0>         0.1461
     48 H20        -8.0934   -3.4484    5.8153 H         1 <0>         0.1326
     49 H21       -10.3507   -3.6526    4.8601 H         1 <0>         0.1313
     50 H22       -10.8804   -2.5968    2.7016 H         1 <0>         0.1272
     51 H23       -11.1525   -2.5207    0.5807 H         1 <0>         0.1221
     52 H24       -11.6389   -1.0365    1.4343 H         1 <0>         0.1225
     53 H25       -13.3835   -1.5287   -0.5599 H         1 <0>         0.4061
     54 H26       -13.0579   -0.6281   -1.9403 H         1 <0>         0.4113
     55 H27        -1.8508   -0.1789   -0.7851 H         1 <0>         0.4229
@<TRIPOS>BOND
     1    1    2 1
     2    1   31 1
     3    1   32 1
     4    1   33 1
     5    2    3 1
     6    2    4 1
     7    2   10 1
     8    4    9 ar
     9    4    5 ar
    10    5    6 ar
    11    5   34 1
    12    6    7 ar
    13    6   35 1
    14    7    8 ar
    15    7   36 1
    16    8    9 ar
    17    8   37 1
    18    9   38 1
    19   10   15 1
    20   10   11 1
    21   10   55 1
    22   11   12 1
    23   11   39 1
    24   11   40 1
    25   12   13 1
    26   12   41 1
    27   12   42 1
    28   13   14 1
    29   13   15 1
    30   13   16 1
    31   15   43 1
    32   15   44 1
    33   16   17 am
    34   16   45 1
    35   17   18 2
    36   17   19 am
    37   19   20 1
    38   19   46 1
    39   20   25 ar
    40   20   21 ar
    41   21   22 ar
    42   21   47 1
    43   22   23 ar
    44   22   48 1
    45   23   24 ar
    46   23   49 1
    47   24   25 ar
    48   24   50 1
    49   25   26 1
    50   26   27 1
    51   27   28 1
    52   27   51 1
    53   27   52 1
    54   28   29 2
    55   28   30 am
    56   30   53 1
    57   30   54 1
@<TRIPOS>MOLECULE
ZINC63511713
   53    55     0     0     0
SMALL
USER_CHARGES

@<TRIPOS>ATOM
      1 C1         -1.1793    1.9897    0.3393 C.3       1 <0>        -0.0859
      2 C2         -0.7960    0.5350    0.2490 C.2       1 <0>         0.3293
      3 N1         -1.6236   -0.4704    0.1776 N.2       1 <0>        -0.5560
      4 C3         -0.9439   -1.6206    0.1093 C.2       1 <0>         0.1988
      5 N2          0.3313   -1.3592    0.1366 N.2       1 <0>        -0.2915
      6 O1          0.4528    0.0528    0.2224 O.3       1 <0>        -0.0743
      7 C4         -1.5549   -2.9951    0.0165 C.3       1 <0>         0.1796
      8 C5         -2.3529   -3.0882   -1.2558 C.3       1 <0>        -0.1389
      9 C6         -3.5881   -3.9745   -0.9955 C.3       1 <0>        -0.1371
     10 C7         -3.2708   -5.3943   -1.0367 C.3       1 <0>        -0.1474
     11 C8         -2.2550   -5.8015    0.0502 C.3       1 <0>        -0.1327
     12 C9         -0.8752   -5.4311   -0.4222 C.3       1 <0>        -0.1325
     13 C10        -0.4304   -4.0460    0.0854 C.3       1 <0>        -0.1466
     14 N3         -2.4589   -3.1908    1.1577 N.4       1 <0>        -0.4990
     15 C11        -1.6734   -3.2718    2.3964 C.3       1 <0>        -0.0447
     16 C12        -2.6051   -3.3226    3.5797 C.2       1 <0>         0.5055
     17 O2         -3.8054   -3.2940    3.4081 O.2       1 <0>        -0.5126
     18 N4         -2.1046   -3.3996    4.8287 N.am      1 <0>        -0.6315
     19 C13        -2.9641   -3.5379    5.9161 C.ar      1 <0>         0.1839
     20 C14        -4.1908   -2.8875    5.9229 C.ar      1 <0>        -0.1245
     21 C15        -5.0407   -3.0255    7.0017 C.ar      1 <0>        -0.0678
     22 C16        -4.6788   -3.8120    8.0835 C.ar      1 <0>        -0.1241
     23 C17        -3.4655   -4.4653    8.0939 C.ar      1 <0>        -0.0650
     24 C18        -2.5971   -4.3395    7.0071 C.ar      1 <0>        -0.1613
     25 C19        -1.2994   -5.0410    7.0091 C.2       1 <0>         0.5737
     26 O3         -0.5084   -4.8589    6.1038 O.2       1 <0>        -0.5585
     27 N5         -0.9906   -5.8839    8.0144 N.am      1 <0>        -0.8392
     28 H1         -0.2778    2.6010    0.3809 H         1 <0>         0.1102
     29 H2         -1.7656    2.2660   -0.5370 H         1 <0>         0.1217
     30 H3         -1.7716    2.1541    1.2394 H         1 <0>         0.1199
     31 H4         -2.6745   -2.0922   -1.5601 H         1 <0>         0.1109
     32 H5         -1.7411   -3.5340   -2.0400 H         1 <0>         0.1236
     33 H6         -3.9959   -3.7323   -0.0141 H         1 <0>         0.0521
     34 H7         -4.3427   -3.7593   -1.7521 H         1 <0>         0.1107
     35 H8         -4.1883   -5.9653   -0.8941 H         1 <0>         0.0883
     36 H9         -2.8560   -5.6350   -2.0155 H         1 <0>         0.0923
     37 H10        -2.4789   -5.2732    0.9769 H         1 <0>         0.0372
     38 H11        -2.3085   -6.8774    0.2166 H         1 <0>         0.1020
     39 H12        -0.1679   -6.1806   -0.0672 H         1 <0>         0.0956
     40 H13        -0.8647   -5.4273   -1.5121 H         1 <0>         0.0915
     41 H14         0.4090   -3.7029   -0.5195 H         1 <0>         0.1233
     42 H15        -0.1001   -4.1402    1.1198 H         1 <0>         0.0956
     43 H16        -3.0999   -2.4138    1.2161 H         1 <0>         0.4388
     44 H17        -1.0590   -4.1720    2.3788 H         1 <0>         0.1750
     45 H18        -1.0309   -2.3950    2.4772 H         1 <0>         0.1532
     46 H19        -1.1459   -3.3588    4.9704 H         1 <0>         0.4321
     47 H20        -4.4801   -2.2727    5.0834 H         1 <0>         0.1453
     48 H21        -5.9935   -2.5171    7.0027 H         1 <0>         0.1399
     49 H22        -5.3508   -3.9132    8.9229 H         1 <0>         0.1404
     50 H23        -3.1880   -5.0768    8.9398 H         1 <0>         0.1377
     51 H24        -1.6216   -6.0293    8.7366 H         1 <0>         0.4066
     52 H25        -0.1373   -6.3453    8.0157 H         1 <0>         0.4122
     53 H26        -2.9784   -4.0467    1.0323 H         1 <0>         0.4440
@<TRIPOS>BOND
     1    1    2 1
     2    1   28 1
     3    1   29 1
     4    1   30 1
     5    2    6 1
     6    2    3 2
     7    3    4 1
     8    4    5 2
     9    4    7 1
    10    5    6 1
    11    7   13 1
    12    7    8 1
    13    7   14 1
    14    8    9 1
    15    8   31 1
    16    8   32 1
    17    9   10 1
    18    9   33 1
    19    9   34 1
    20   10   11 1
    21   10   35 1
    22   10   36 1
    23   11   12 1
    24   11   37 1
    25   11   38 1
    26   12   13 1
    27   12   39 1
    28   12   40 1
    29   13   41 1
    30   13   42 1
    31   14   15 1
    32   14   43 1
    33   14   53 1
    34   15   16 1
    35   15   44 1
    36   15   45 1
    37   16   17 2
    38   16   18 am
    39   18   19 1
    40   18   46 1
    41   19   24 ar
    42   19   20 ar
    43   20   21 ar
    44   20   47 1
    45   21   22 ar
    46   21   48 1
    47   22   23 ar
    48   22   49 1
    49   23   24 ar
    50   23   50 1
    51   24   25 1
    52   25   26 2
    53   25   27 am
    54   27   51 1
    55   27   52 1
@<TRIPOS>MOLECULE
ZINC04221599
   52    52     0     0     0
SMALL
USER_CHARGES
2-[[4,5-dihydroxy-3-(2-methylaminopropanoylamino)-1-cyclohexenyl]carbonylamino]butanediamide
@<TRIPOS>ATOM
      1 C1         -0.5338    0.6727   -2.3619 C.3       1 <0>        -0.1801
      2 C2         -0.7955    1.5269   -1.1198 C.3       1 <0>         0.0081
      3 H1         -0.5027    2.5577   -1.3195 H         1 <0>         0.1670
      4 C3         -2.2622    1.4787   -0.7769 C.2       1 <0>         0.5055
      5 O1         -2.6193    1.0515    0.3006 O.2       1 <0>        -0.5228
      6 N1         -3.1770    1.9103   -1.6675 N.am      1 <0>        -0.6825
      7 C4         -4.6028    1.8634   -1.3342 C.3       1 <0>         0.1885
      8 H2         -4.7327    2.0728   -0.2724 H         1 <0>         0.1242
      9 C5         -5.1401    0.4953   -1.6381 C.2       1 <0>        -0.1054
     10 C6         -5.8669    0.2135   -2.6979 C.2       1 <0>        -0.1231
     11 C7         -6.2595    1.2259   -3.7341 C.3       1 <0>        -0.1288
     12 C8         -5.3725    2.4674   -3.6202 C.3       1 <0>         0.0798
     13 H3         -4.3603    2.2253   -3.9443 H         1 <0>         0.0633
     14 C9         -5.3503    2.9171   -2.1541 C.3       1 <0>         0.1043
     15 H4         -6.3714    3.0119   -1.7847 H         1 <0>         0.0913
     16 O2         -4.6785    4.1738   -2.0475 O.3       1 <0>        -0.5574
     17 O3         -5.9042    3.5138   -4.4352 O.3       1 <0>        -0.5577
     18 C10        -6.3206   -1.1741   -2.8779 C.2       1 <0>         0.5628
     19 O4         -6.0223   -2.0225   -2.0592 O.2       1 <0>        -0.5296
     20 N2         -7.0668   -1.5053   -3.9503 N.am      1 <0>        -0.6919
     21 C11        -7.5187   -2.8873   -4.1296 C.3       1 <0>         0.1452
     22 H5         -6.7521   -3.5706   -3.7641 H         1 <0>         0.1275
     23 C12        -7.7719   -3.1524   -5.6150 C.3       1 <0>        -0.1546
     24 C13        -6.4718   -3.0568   -6.3711 C.2       1 <0>         0.5176
     25 O5         -5.4439   -2.8017   -5.7801 O.2       1 <0>        -0.5327
     26 N3         -6.4513   -3.2547   -7.7041 N.am      1 <0>        -0.8518
     27 C14        -8.7940   -3.1032   -3.3563 C.2       1 <0>         0.5058
     28 O6         -9.2779   -2.1924   -2.7182 O.2       1 <0>        -0.5249
     29 N4         -9.3969   -4.3085   -3.3738 N.am      1 <0>        -0.8504
     30 C15         1.3525    1.5499   -0.0025 C.3       1 <0>        -0.0424
     31 H6         -1.1154    1.0601   -3.1984 H         1 <0>         0.1084
     32 H7          0.5270    0.7076   -2.6099 H         1 <0>         0.0979
     33 H8         -0.8266   -0.3581   -2.1622 H         1 <0>         0.0917
     34 H9         -2.8914    2.2520   -2.5293 H         1 <0>         0.4120
     35 H10        -4.9170   -0.3040   -0.9471 H         1 <0>         0.1422
     36 H11        -7.3009    1.5109   -3.5845 H         1 <0>         0.1042
     37 H12        -6.1453    0.7901   -4.7266 H         1 <0>         0.0887
     38 H13        -5.1000    4.8884   -2.5442 H         1 <0>         0.3991
     39 H14        -5.9469    3.2961   -5.3765 H         1 <0>         0.3915
     40 H15        -7.3047   -0.8287   -4.6033 H         1 <0>         0.4028
     41 H16        -8.1920   -4.1505   -5.7396 H         1 <0>         0.1199
     42 H17        -8.4725   -2.4124   -6.0019 H         1 <0>         0.1114
     43 H18        -7.2734   -3.4587   -8.1768 H         1 <0>         0.4053
     44 H19        -5.6144   -3.1931   -8.1907 H         1 <0>         0.4064
     45 H20        -9.0100   -5.0370   -3.8842 H         1 <0>         0.4022
     46 H21       -10.2178   -4.4474   -2.8761 H         1 <0>         0.4081
     47 H22         1.3102    2.6363    0.0746 H         1 <0>         0.1246
     48 H23         1.9110    1.1471    0.8425 H         1 <0>         0.1312
     49 H24         1.8485    1.2706   -0.9321 H         1 <0>         0.1244
     50 N5         -0.0153    0.9979    0.0149 N.4       1 <0>        -0.5074
     51 H25         0.0315   -0.0254   -0.0540 H         1 <0>         0.4382
     52 H26        -0.4755    1.2610    0.8943 H         1 <0>         0.4428
@<TRIPOS>BOND
     1    1    2 1
     2    1   31 1
     3    1   32 1
     4    1   33 1
     5    2    3 1
     6    2    4 1
     7    2   50 1
     8    4    5 2
     9    4    6 am
    10    6    7 1
    11    6   34 1
    12    7    8 1
    13    7   14 1
    14    7    9 1
    15    9   10 2
    16    9   35 1
    17   10   11 1
    18   10   18 1
    19   11   12 1
    20   11   36 1
    21   11   37 1
    22   12   13 1
    23   12   14 1
    24   12   17 1
    25   14   15 1
    26   14   16 1
    27   16   38 1
    28   17   39 1
    29   18   19 2
    30   18   20 am
    31   20   21 1
    32   20   40 1
    33   21   22 1
    34   21   23 1
    35   21   27 1
    36   23   24 1
    37   23   41 1
    38   23   42 1
    39   24   25 2
    40   24   26 am
    41   26   43 1
    42   26   44 1
    43   27   28 2
    44   27   29 am
    45   29   45 1
    46   29   46 1
    47   30   47 1
    48   30   48 1
    49   30   49 1
    50   30   50 1
    51   50   51 1
    52   50   52 1
@<TRIPOS>MOLECULE
ZINC24171217
   33    33     0     0     0
SMALL
USER_CHARGES

@<TRIPOS>ATOM
      1 C1         -0.7693    1.6051   -1.0713 C.3       1 <0>         0.0213
      2 O1         -0.4427    0.2634   -0.7037 O.3       1 <0>        -0.2947
      3 C2         -1.4782   -0.5592   -0.3862 C.ar      1 <0>         0.1282
      4 C3         -2.7799   -0.0844   -0.4339 C.ar      1 <0>        -0.1583
      5 C4         -3.8351   -0.9238   -0.1101 C.ar      1 <0>         0.1084
      6 C5         -3.5844   -2.2424    0.2625 C.ar      1 <0>         0.0823
      7 C6         -2.2826   -2.7122    0.3087 C.ar      1 <0>        -0.1455
      8 C7         -1.2315   -1.8748   -0.0202 C.ar      1 <0>        -0.0239
      9 Cl1         0.3989   -2.4689    0.0313 Cl        1 <0>        -0.0227
     10 O2         -4.6179   -3.0681    0.5812 O.3       1 <0>        -0.3129
     11 C8         -4.2871   -4.4073    0.9541 C.3       1 <0>         0.0187
     12 N1         -5.1518   -0.4461   -0.1571 N.pl3     1 <0>        -0.6727
     13 C9         -5.9057   -0.3930    0.9923 C.2       1 <0>         0.6596
     14 N2         -7.1528   -0.0217    0.9366 N.2       1 <0>        -0.7916
     15 N3         -5.3404   -0.7336    2.2050 N.pl3     1 <0>        -0.6284
     16 C10        -6.0488   -0.5540    3.3673 C.cat     1 <0>         0.7586
     17 N4         -5.5618   -1.0068    4.5204 N.pl3     1 <0>        -0.7903
     18 N5         -7.2228    0.0729    3.3410 N.pl3     1 <0>        -0.7512
     19 H1          0.1455    2.1523   -1.2993 H         1 <0>         0.1131
     20 H2         -1.4147    1.5944   -1.9496 H         1 <0>         0.0619
     21 H3         -1.2877    2.0922   -0.2455 H         1 <0>         0.0594
     22 H4         -2.9719    0.9384   -0.7227 H         1 <0>         0.1559
     23 H5         -2.0879   -3.7344    0.5979 H         1 <0>         0.1587
     24 H6         -3.7655   -4.8954    0.1309 H         1 <0>         0.0674
     25 H7         -3.6433   -4.3911    1.8335 H         1 <0>         0.0617
     26 H8         -5.2003   -4.9569    1.1824 H         1 <0>         0.1095
     27 H9         -5.5315   -0.1528   -1.0001 H         1 <0>         0.4358
     28 H10        -7.5705    0.1476    0.0776 H         1 <0>         0.3822
     29 H11        -4.4426   -1.0996    2.2359 H         1 <0>         0.4452
     30 H12        -4.7063   -1.4636    4.5395 H         1 <0>         0.4390
     31 H13        -7.5520    0.4516    2.5109 H         1 <0>         0.4504
     32 H14        -7.7492    0.1510    4.1521 H         1 <0>         0.4289
     33 H15        -6.0623   -0.8800    5.3415 H         1 <0>         0.4459
@<TRIPOS>BOND
     1    1    2 1
     2    1   19 1
     3    1   20 1
     4    1   21 1
     5    2    3 1
     6    3    8 ar
     7    3    4 ar
     8    4    5 ar
     9    4   22 1
    10    5    6 ar
    11    5   12 1
    12    6    7 ar
    13    6   10 1
    14    7    8 ar
    15    7   23 1
    16    8    9 1
    17   10   11 1
    18   11   24 1
    19   11   25 1
    20   11   26 1
    21   12   13 1
    22   12   27 1
    23   13   14 2
    24   13   15 1
    25   14   28 1
    26   15   16 1
    27   15   29 1
    28   16   17 2
    29   16   18 1
    30   17   30 1
    31   17   33 1
    32   18   31 1
    33   18   32 1
@<TRIPOS>MOLECULE
ZINC40750754
   40    41     0     0     0
SMALL
USER_CHARGES

@<TRIPOS>ATOM
      1 C1         -0.5208    1.1351   -0.2462 C.ar      1 <0>        -0.0869
      2 C2          0.6071    1.9049    0.0239 C.ar      1 <0>        -0.0009
      3 C3          1.8229    1.3235    0.2226 C.ar      1 <0>        -0.1375
      4 C4          1.9480   -0.0738    0.1559 C.ar      1 <0>         0.1539
      5 C5          0.7993   -0.8534   -0.1184 C.ar      1 <0>        -0.1085
      6 C6         -0.4369   -0.2235   -0.3184 C.ar      1 <0>        -0.0472
      7 C7          0.9243   -2.2618   -0.1858 C.ar      1 <0>         0.4227
      8 C8          2.1950   -2.8154    0.0255 C.ar      1 <0>        -0.2539
      9 C9          3.2789   -1.9653    0.2918 C.ar      1 <0>         0.2591
     10 N1          3.1348   -0.6658    0.3488 N.ar      1 <0>        -0.4471
     11 C10         2.3900   -4.2754   -0.0312 C.cat     1 <0>         0.6182
     12 N2          3.2516   -4.7998   -0.9039 N.pl3     1 <0>        -0.7496
     13 N3          1.7048   -5.0721    0.7903 N.pl3     1 <0>        -0.7226
     14 N4         -0.1662   -3.0617   -0.4497 N.pl3     1 <0>        -0.6844
     15 C11        -0.5397   -3.3573   -1.8351 C.3       1 <0>         0.1335
     16 C12         0.2434   -4.5769   -2.3253 C.3       1 <0>         0.0483
     17 O1         -0.1374   -5.7249   -1.5643 O.3       1 <0>        -0.5665
     18 C13        -0.9521   -3.6166    0.6552 C.3       1 <0>         0.1327
     19 C14        -2.0757   -2.6445    1.0204 C.3       1 <0>         0.0445
     20 O2         -2.9871   -2.5368   -0.0750 O.3       1 <0>        -0.5666
     21 H1         -1.4743    1.6196   -0.3959 H         1 <0>         0.1662
     22 H2          0.5170    2.9798    0.0764 H         1 <0>         0.1705
     23 H3          2.6883    1.9353    0.4305 H         1 <0>         0.1704
     24 H4         -1.3181   -0.8115   -0.5282 H         1 <0>         0.1731
     25 H5          4.2567   -2.3941    0.4545 H         1 <0>         0.2222
     26 H6          3.8026   -4.2181   -1.4507 H         1 <0>         0.4486
     27 H7          1.0782   -4.6907    1.4250 H         1 <0>         0.4438
     28 H8          1.8331   -6.0329    0.7531 H         1 <0>         0.4438
     29 H9         -1.6081   -3.5669   -1.8865 H         1 <0>         0.1230
     30 H10        -0.3071   -2.4988   -2.4652 H         1 <0>         0.0923
     31 H11         0.0239   -4.7502   -3.3788 H         1 <0>         0.0771
     32 H12         1.3113   -4.3968   -2.2015 H         1 <0>         0.0267
     33 H13         0.3206   -6.5368   -1.8214 H         1 <0>         0.3857
     34 H14        -1.3818   -4.5713    0.3518 H         1 <0>         0.1218
     35 H15        -0.3065   -3.7673    1.5204 H         1 <0>         0.0734
     36 H16        -2.6051   -3.0145    1.8984 H         1 <0>         0.0726
     37 H17        -1.6517   -1.6643    1.2380 H         1 <0>         0.0466
     38 H18        -3.7269   -1.9353    0.0865 H         1 <0>         0.3953
     39 H19         3.3272   -5.7629   -0.9918 H         1 <0>         0.4436
     40 H20         3.9107   -0.1143    0.5353 H         1 <0>         0.4622
@<TRIPOS>BOND
     1    1    6 ar
     2    1    2 ar
     3    1   21 1
     4    2    3 ar
     5    2   22 1
     6    3    4 ar
     7    3   23 1
     8    4   10 ar
     9    4    5 ar
    10    5    6 ar
    11    5    7 ar
    12    6   24 1
    13    7    8 ar
    14    7   14 1
    15    8    9 ar
    16    8   11 1
    17    9   10 ar
    18    9   25 1
    19   10   40 1
    20   11   12 2
    21   11   13 1
    22   12   26 1
    23   12   39 1
    24   13   27 1
    25   13   28 1
    26   14   15 1
    27   14   18 1
    28   15   16 1
    29   15   29 1
    30   15   30 1
    31   16   17 1
    32   16   31 1
    33   16   32 1
    34   17   33 1
    35   18   19 1
    36   18   34 1
    37   18   35 1
    38   19   20 1
    39   19   36 1
    40   19   37 1
    41   20   38 1
@<TRIPOS>MOLECULE
ZINC43162893
   57    60     0     0     0
SMALL
USER_CHARGES

@<TRIPOS>ATOM
      1 C1         -0.9365    0.4810    0.7390 C.3       1 <0>        -0.1833
      2 C2         -0.4067   -0.9380    0.9556 C.3       1 <0>         0.1792
      3 C3         -1.5516   -1.8438    1.3246 C.ar      1 <0>        -0.0602
      4 C4         -2.7810   -1.6491    0.7265 C.ar      1 <0>        -0.1370
      5 C5         -3.8541   -2.4645    1.0432 C.ar      1 <0>        -0.0773
      6 C6         -3.7134   -3.4869    1.9607 C.ar      1 <0>        -0.1513
      7 C7         -2.4882   -3.7010    2.5743 C.ar      1 <0>         0.1631
      8 C8         -1.3999   -2.8733    2.2571 C.ar      1 <0>        -0.1692
      9 C9         -0.1000   -3.0935    2.9146 C.2       1 <0>         0.3819
     10 C10         1.0968   -2.3592    2.3473 C.3       1 <0>        -0.1748
     11 C11         0.6445   -0.9184    2.0611 C.3       1 <0>        -0.0806
     12 H1          0.2121   -0.4883    2.9645 H         1 <0>         0.0949
     13 C12         1.8531   -0.0862    1.6365 C.3       1 <0>         0.1033
     14 H2          1.5258    0.9182    1.3675 H         1 <0>         0.0405
     15 C13         2.8500   -0.0044    2.7924 C.3       1 <0>        -0.1173
     16 H3          2.3507    0.4067    3.6698 H         1 <0>         0.1032
     17 C14         4.0214    0.8986    2.4094 C.3       1 <0>         0.0161
     18 H4          4.6985    0.9939    3.2583 H         1 <0>         0.1716
     19 C15         4.7622    0.3010    1.2422 C.2       1 <0>         0.4377
     20 O1          5.3300    1.0267    0.4511 O.2       1 <0>        -0.5359
     21 C16         4.7998   -1.0981    1.0637 C.2       1 <0>        -0.3773
     22 C17         5.5075   -1.6400   -0.0201 C.2       1 <0>         0.5261
     23 N1          6.2800   -0.8417   -0.7896 N.pl3     1 <0>        -0.8310
     24 O2          5.4171   -2.9533   -0.2928 O.3       1 <0>        -0.4126
     25 C18         4.1351   -1.9581    1.9616 C.2       1 <0>         0.4220
     26 O3          4.1834   -3.1592    1.7888 O.2       1 <0>        -0.4933
     27 C19         3.3792   -1.4027    3.1210 C.3       1 <0>         0.1493
     28 C20         2.1972   -2.3141    3.3817 C.2       1 <0>         0.3448
     29 O4          2.1364   -2.9833    4.3852 O.2       1 <0>        -0.4016
     30 O5          4.2281   -1.3403    4.2688 O.3       1 <0>        -0.8176
     31 N2          3.5140    2.2260    2.0374 N.4       1 <0>        -0.3765
     32 C21         2.6520    2.7392    3.1105 C.3       1 <0>        -0.0553
     33 C22         4.6436    3.1433    1.8359 C.3       1 <0>        -0.0585
     34 O6          2.4812   -0.7000    0.5092 O.3       1 <0>        -0.5256
     35 O7          0.0071   -3.8320    3.8709 O.2       1 <0>        -0.3857
     36 O8         -2.3429   -4.7033    3.4759 O.3       1 <0>        -0.4780
     37 O9          0.1917   -1.4065   -0.2545 O.3       1 <0>        -0.5407
     38 H5         -0.1143    1.1356    0.4501 H         1 <0>         0.0674
     39 H6         -1.6881    0.4716   -0.0504 H         1 <0>         0.0724
     40 H7         -1.3846    0.8465    1.6630 H         1 <0>         0.0747
     41 H8         -2.9065   -0.8541    0.0062 H         1 <0>         0.1323
     42 H9         -4.8101   -2.2992    0.5686 H         1 <0>         0.1332
     43 H10        -4.5560   -4.1185    2.2003 H         1 <0>         0.1375
     44 H11         6.6666   -0.0344   -0.4158 H         1 <0>         0.4303
     45 H12         6.4479   -1.0759   -1.7158 H         1 <0>         0.4035
     46 H13         5.9394   -3.2332   -1.0570 H         1 <0>         0.3990
     47 H14         2.2755    3.7241    2.8345 H         1 <0>         0.1200
     48 H15         1.8138    2.0586    3.2600 H         1 <0>         0.1218
     49 H16         3.2270    2.8155    4.0333 H         1 <0>         0.1263
     50 H17         5.1673    2.8785    0.9173 H         1 <0>         0.1487
     51 H18         4.2727    4.1655    1.7610 H         1 <0>         0.1110
     52 H19         5.3291    3.0664    2.6800 H         1 <0>         0.1153
     53 H20         1.9771   -0.6227   -0.3124 H         1 <0>         0.3742
     54 H21        -2.0713   -5.5460    3.0868 H         1 <0>         0.3976
     55 H22        -0.4149   -1.4377   -1.0069 H         1 <0>         0.3816
     56 H23         2.9817    2.1554    1.1832 H         1 <0>         0.4159
     57 H24         1.4478   -2.8463    1.4375 H         1 <0>         0.1446
@<TRIPOS>BOND
     1    1    2 1
     2    1   38 1
     3    1   39 1
     4    1   40 1
     5    2   11 1
     6    2    3 1
     7    2   37 1
     8    3    8 ar
     9    3    4 ar
    10    4    5 ar
    11    4   41 1
    12    5    6 ar
    13    5   42 1
    14    6    7 ar
    15    6   43 1
    16    7    8 ar
    17    7   36 1
    18    8    9 1
    19    9   10 1
    20    9   35 2
    21   10   28 1
    22   10   11 1
    23   10   57 1
    24   11   12 1
    25   11   13 1
    26   13   14 1
    27   13   15 1
    28   13   34 1
    29   15   16 1
    30   15   27 1
    31   15   17 1
    32   17   18 1
    33   17   19 1
    34   17   31 1
    35   19   20 2
    36   19   21 1
    37   21   22 2
    38   21   25 1
    39   22   23 1
    40   22   24 1
    41   23   44 1
    42   23   45 1
    43   24   46 1
    44   25   26 2
    45   25   27 1
    46   27   28 1
    47   27   30 1
    48   28   29 2
    49   31   32 1
    50   31   33 1
    51   31   56 1
    52   32   47 1
    53   32   48 1
    54   32   49 1
    55   33   50 1
    56   33   51 1
    57   33   52 1
    58   34   53 1
    59   36   54 1
    60   37   55 1
@<TRIPOS>MOLECULE
ZINC61806158
   46    46     0     0     0
SMALL
USER_CHARGES

@<TRIPOS>ATOM
      1 C1          0.3194    1.9069    0.3811 C.3       1 <0>        -0.1578
      2 C2          0.2818    0.3805    0.2841 C.3       1 <0>        -0.1241
      3 C3          0.9258   -0.2260    1.5324 C.3       1 <0>        -0.0858
      4 H1          1.9311    0.1771    1.6549 H         1 <0>         0.0806
      5 C4          0.0835    0.1224    2.7613 C.3       1 <0>        -0.1165
      6 C5         -1.3276   -0.4434    2.5894 C.3       1 <0>        -0.1326
      7 C6         -1.2524   -1.9639    2.4370 C.3       1 <0>        -0.1052
      8 H2         -0.7936   -2.3959    3.3263 H         1 <0>         0.0934
      9 C7         -0.4101   -2.3122    1.2081 C.3       1 <0>         0.0896
     10 H3         -0.8689   -1.8802    0.3188 H         1 <0>         0.1124
     11 C8          1.0010   -1.7465    1.3800 C.3       1 <0>        -0.1536
     12 N1         -0.3379   -3.7721    1.0618 N.3       1 <0>        -0.4981
     13 C9          0.3637   -4.1433   -0.1743 C.3       1 <0>         0.0289
     14 C10        -0.5445   -3.9154   -1.3552 C.2       1 <0>         0.5257
     15 O1         -1.6982   -3.5858   -1.1782 O.2       1 <0>        -0.5315
     16 N2         -0.0747   -4.0779   -2.6079 N.am      1 <0>        -0.8555
     17 C11         0.2989   -4.3878    2.2337 C.3       1 <0>         0.0207
     18 C12         0.0122   -5.8673    2.2419 C.2       1 <0>         0.5072
     19 O2         -0.7294   -6.3459    1.4101 O.2       1 <0>        -0.5162
     20 N3          0.5800   -6.6586    3.1735 N.am      1 <0>        -0.8562
     21 C13        -2.6636   -2.5296    2.2651 C.3       1 <0>        -0.0053
     22 N4         -3.4362   -2.2999    3.4932 N.4       1 <0>        -0.6394
     23 H4          1.3544    2.2409    0.4547 H         1 <0>         0.0572
     24 H5         -0.1394    2.3390   -0.5082 H         1 <0>         0.0572
     25 H6         -0.2299    2.2284    1.2660 H         1 <0>         0.0557
     26 H7         -0.7532    0.0465    0.2105 H         1 <0>         0.0640
     27 H8          0.8311    0.0590   -0.6008 H         1 <0>         0.0633
     28 H9          0.5423   -0.3097    3.6506 H         1 <0>         0.0671
     29 H10         0.0299    1.2056    2.8699 H         1 <0>         0.0788
     30 H11        -1.9277   -0.1952    3.4648 H         1 <0>         0.0625
     31 H12        -1.7864   -0.0113    1.7000 H         1 <0>         0.0861
     32 H13         1.6011   -1.9947    0.5046 H         1 <0>         0.0755
     33 H14         1.4598   -2.1785    2.2694 H         1 <0>         0.0710
     34 H15         1.2593   -3.5314   -0.2815 H         1 <0>         0.0752
     35 H16         0.6454   -5.1953   -0.1303 H         1 <0>         0.1127
     36 H17         0.8480   -4.3415   -2.7494 H         1 <0>         0.4029
     37 H18        -0.6593   -3.9313   -3.3679 H         1 <0>         0.4072
     38 H19         1.3760   -4.2267    2.1885 H         1 <0>         0.0770
     39 H20        -0.0983   -3.9357    3.1425 H         1 <0>         0.1067
     40 H21         1.1732   -6.2758    3.8387 H         1 <0>         0.4022
     41 H22         0.3955   -7.6109    3.1788 H         1 <0>         0.4085
     42 H23        -3.1548   -2.0327    1.4285 H         1 <0>         0.1376
     43 H24        -2.6044   -3.6000    2.0680 H         1 <0>         0.1510
     44 H25        -4.3668   -2.6730    3.3798 H         1 <0>         0.4391
     45 H26        -2.9814   -2.7598    4.2676 H         1 <0>         0.4310
     46 H27        -3.4910   -1.3090    3.6757 H         1 <0>         0.4297
@<TRIPOS>BOND
     1    1    2 1
     2    1   23 1
     3    1   24 1
     4    1   25 1
     5    2    3 1
     6    2   26 1
     7    2   27 1
     8    3    4 1
     9    3   11 1
    10    3    5 1
    11    5    6 1
    12    5   28 1
    13    5   29 1
    14    6    7 1
    15    6   30 1
    16    6   31 1
    17    7    8 1
    18    7    9 1
    19    7   21 1
    20    9   10 1
    21    9   11 1
    22    9   12 1
    23   11   32 1
    24   11   33 1
    25   12   13 1
    26   12   17 1
    27   13   14 1
    28   13   34 1
    29   13   35 1
    30   14   15 2
    31   14   16 am
    32   16   36 1
    33   16   37 1
    34   17   18 1
    35   17   38 1
    36   17   39 1
    37   18   19 2
    38   18   20 am
    39   20   40 1
    40   20   41 1
    41   21   22 1
    42   21   42 1
    43   21   43 1
    44   22   44 1
    45   22   45 1
    46   22   46 1
@<TRIPOS>MOLECULE
ZINC04543614
   40    41     0     0     0
SMALL
USER_CHARGES
2-amino-N-[4-bromo-2-(2-chlorobenzoyl)-phenyl]-2-methyl-propanamide
@<TRIPOS>ATOM
      1 C1         -4.2127    2.3702   -0.9803 C.3       1 <0>        -0.1803
      2 C2         -3.8054    1.2988    0.0331 C.3       1 <0>         0.0552
      3 C3         -4.7253    0.0847   -0.1106 C.3       1 <0>        -0.1659
      4 C4         -2.3798    0.8820   -0.2221 C.2       1 <0>         0.5004
      5 O1         -2.1460   -0.0902   -0.9084 O.2       1 <0>        -0.4444
      6 N1         -1.3649    1.5896    0.3122 N.am      1 <0>        -0.6668
      7 C5         -0.0539    1.1404    0.1733 C.ar      1 <0>         0.1696
      8 C6          0.1992   -0.1925   -0.1211 C.ar      1 <0>        -0.1243
      9 C7          1.4988   -0.6348   -0.2640 C.ar      1 <0>        -0.0483
     10 C8          2.5604    0.2451   -0.1154 C.ar      1 <0>        -0.0965
     11 C9          2.3287    1.5720    0.1770 C.ar      1 <0>        -0.0305
     12 C10         1.0178    2.0345    0.3247 C.ar      1 <0>        -0.1598
     13 C11         0.7623    3.4524    0.6369 C.2       1 <0>         0.4285
     14 O2          0.9292    3.8654    1.7684 O.2       1 <0>        -0.4000
     15 C12         0.3035    4.3714   -0.4247 C.ar      1 <0>        -0.1761
     16 C13         0.0008    3.8792   -1.6967 C.ar      1 <0>        -0.0591
     17 C14        -0.4311    4.7419   -2.6816 C.ar      1 <0>        -0.1276
     18 C15        -0.5561    6.0949   -2.4162 C.ar      1 <0>        -0.0629
     19 C16        -0.2535    6.5913   -1.1614 C.ar      1 <0>        -0.1215
     20 C17         0.1757    5.7385   -0.1632 C.ar      1 <0>         0.0132
     21 Cl1         0.5547    6.3627    1.4117 Cl        1 <0>        -0.0252
     22 Br1         4.3345   -0.3786   -0.3141 Br        1 <0>        -0.0179
     23 H1         -4.1272    1.9670   -1.9894 H         1 <0>         0.1191
     24 H2         -5.2438    2.6717   -0.7957 H         1 <0>         0.1057
     25 H3         -3.5574    3.2351   -0.8779 H         1 <0>         0.0877
     26 H4         -4.4351   -0.6785    0.6114 H         1 <0>         0.0901
     27 H5         -5.7563    0.3862    0.0740 H         1 <0>         0.0994
     28 H6         -4.6398   -0.3185   -1.1197 H         1 <0>         0.1215
     29 H7         -1.5474    2.4117    0.7936 H         1 <0>         0.4036
     30 H8         -0.6219   -0.8841   -0.2389 H         1 <0>         0.1660
     31 H9          1.6902   -1.6727   -0.4935 H         1 <0>         0.1498
     32 H10         3.1587    2.2533    0.2922 H         1 <0>         0.1484
     33 H11         0.1012    2.8246   -1.9069 H         1 <0>         0.1362
     34 H12        -0.6686    4.3617   -3.6642 H         1 <0>         0.1399
     35 H13        -0.8912    6.7661   -3.1931 H         1 <0>         0.1439
     36 H14        -0.3526    7.6481   -0.9617 H         1 <0>         0.1463
     37 H15        -4.8680    2.1291    1.5887 H         1 <0>         0.4498
     38 H16        -3.5960    1.1756    2.0775 H         1 <0>         0.4440
     39 N2         -3.9050    1.8620    1.3912 N.4       1 <0>        -0.6456
     40 H17        -3.3066    2.6938    1.4563 H         1 <0>         0.4345
@<TRIPOS>BOND
     1    1    2 1
     2    1   23 1
     3    1   24 1
     4    1   25 1
     5    2    3 1
     6    2    4 1
     7    2   39 1
     8    3   26 1
     9    3   27 1
    10    3   28 1
    11    4    5 2
    12    4    6 am
    13    6    7 1
    14    6   29 1
    15    7   12 ar
    16    7    8 ar
    17    8    9 ar
    18    8   30 1
    19    9   10 ar
    20    9   31 1
    21   10   11 ar
    22   10   22 1
    23   11   12 ar
    24   11   32 1
    25   12   13 1
    26   13   14 2
    27   13   15 1
    28   15   20 ar
    29   15   16 ar
    30   16   17 ar
    31   16   33 1
    32   17   18 ar
    33   17   34 1
    34   18   19 ar
    35   18   35 1
    36   19   20 ar
    37   19   36 1
    38   20   21 1
    39   37   39 1
    40   38   39 1
    41   39   40 1
@<TRIPOS>MOLECULE
ZINC19536092
   56    58     0     0     0
SMALL
USER_CHARGES
4-methoxy-N'-[2-[[(R)-phenyl-(p-tolyl)methyl]amino]acetyl]benzohydrazide
@<TRIPOS>ATOM
      1 C1         11.2204    4.9482   -2.3825 C.3       1 <0>        -0.1328
      2 C2         10.1835    4.0381   -1.7763 C.ar      1 <0>        -0.0497
      3 C3         10.1882    2.6886   -2.0761 C.ar      1 <0>        -0.1101
      4 C4          9.2368    1.8539   -1.5204 C.ar      1 <0>        -0.0789
      5 C5          8.2807    2.3685   -0.6648 C.ar      1 <0>        -0.1453
      6 C6          8.2729    3.7188   -0.3691 C.ar      1 <0>        -0.1113
      7 C7          9.2275    4.5527   -0.9207 C.ar      1 <0>        -0.1086
      8 C8          7.2433    1.4585   -0.0593 C.3       1 <0>         0.1465
      9 H1          7.1422    0.5445   -0.6630 H         1 <0>         0.1496
     10 C9          7.6440    1.1079    1.3505 C.ar      1 <0>        -0.1345
     11 C10         7.4148    2.0043    2.3775 C.ar      1 <0>        -0.1223
     12 C11         7.7784    1.6808    3.6713 C.ar      1 <0>        -0.1009
     13 C12         8.3795    0.4646    3.9368 C.ar      1 <0>        -0.0919
     14 C13         8.6134   -0.4297    2.9090 C.ar      1 <0>        -0.1033
     15 C14         8.2459   -0.1080    1.6158 C.ar      1 <0>        -0.0870
     16 N1          5.9426    2.1412   -0.0432 N.4       1 <0>        -0.5277
     17 C15         4.8392    1.1715   -0.0379 C.3       1 <0>        -0.0161
     18 C16         3.5240    1.9071   -0.0213 C.2       1 <0>         0.4981
     19 O1          3.5076    3.1198   -0.0147 O.2       1 <0>        -0.5420
     20 N2          2.3661    1.2174   -0.0140 N.am      1 <0>        -0.5018
     21 N3          1.1435    1.9013    0.0014 N.am      1 <0>        -0.5362
     22 C17        -0.0144    1.2116    0.0087 C.2       1 <0>         0.5771
     23 O2          0.0021   -0.0041    0.0020 O.2       1 <0>        -0.5333
     24 C18        -1.3026    1.9322    0.0187 C.ar      1 <0>        -0.1815
     25 C19        -1.3236    3.3293    0.0323 C.ar      1 <0>        -0.0397
     26 C20        -2.5275    3.9979    0.0372 C.ar      1 <0>        -0.2170
     27 C21        -3.7206    3.2848    0.0390 C.ar      1 <0>         0.1703
     28 C22        -3.7039    1.8949    0.0304 C.ar      1 <0>        -0.1578
     29 C23        -2.5042    1.2190    0.0206 C.ar      1 <0>        -0.0088
     30 O3         -4.9049    3.9473    0.0487 O.3       1 <0>        -0.3069
     31 C24        -4.8495    5.3752    0.0571 C.3       1 <0>         0.0181
     32 H2         11.8889    4.3622   -3.0303 H         1 <0>         0.0744
     33 H3         11.8076    5.4202   -1.5810 H         1 <0>         0.0807
     34 H4         10.7216    5.7265   -2.9786 H         1 <0>         0.0807
     35 H5         10.9349    2.2866   -2.7448 H         1 <0>         0.1364
     36 H6          9.2402    0.7996   -1.7549 H         1 <0>         0.1331
     37 H7          7.5233    4.1217    0.2959 H         1 <0>         0.1194
     38 H8          9.2236    5.6071   -0.6868 H         1 <0>         0.1348
     39 H9          6.9486    2.9561    2.1695 H         1 <0>         0.1183
     40 H10         7.5953    2.3794    4.4744 H         1 <0>         0.1358
     41 H11         8.6660    0.2130    4.9472 H         1 <0>         0.1362
     42 H12         9.0831   -1.3798    3.1164 H         1 <0>         0.1375
     43 H13         8.4287   -0.8067    0.8128 H         1 <0>         0.1340
     44 H14         5.8675    2.7659    0.8591 H         1 <0>         0.4497
     45 H15         4.8975    0.5449   -0.9401 H         1 <0>         0.1656
     46 H16         4.9147    0.5350    0.8561 H         1 <0>         0.1636
     47 H17         2.3810    0.1175   -0.0201 H         1 <0>         0.4704
     48 H18         1.1286    3.0012    0.0075 H         1 <0>         0.4605
     49 H19        -0.3970    3.8841    0.0350 H         1 <0>         0.1262
     50 H20        -2.5446    5.0777    0.0439 H         1 <0>         0.1401
     51 H21        -4.6330    1.3444    0.0318 H         1 <0>         0.1456
     52 H22        -2.4920    0.1391    0.0139 H         1 <0>         0.1474
     53 H23        -5.8716    5.7817    0.0645 H         1 <0>         0.1102
     54 H24        -4.3214    5.7269   -0.8415 H         1 <0>         0.0621
     55 H25        -4.3128    5.7160    0.9548 H         1 <0>         0.0621
     56 H26         5.8504    2.7756   -0.9371 H         1 <0>         0.4608
@<TRIPOS>BOND
     1    1    2 1
     2    1   32 1
     3    1   33 1
     4    1   34 1
     5    2    7 ar
     6    2    3 ar
     7    3    4 ar
     8    3   35 1
     9    4    5 ar
    10    4   36 1
    11    5    6 ar
    12    5    8 1
    13    6    7 ar
    14    6   37 1
    15    7   38 1
    16    8    9 1
    17    8   10 1
    18    8   16 1
    19   10   15 ar
    20   10   11 ar
    21   11   12 ar
    22   11   39 1
    23   12   13 ar
    24   12   40 1
    25   13   14 ar
    26   13   41 1
    27   14   15 ar
    28   14   42 1
    29   15   43 1
    30   16   17 1
    31   16   44 1
    32   16   56 1
    33   17   18 1
    34   17   45 1
    35   17   46 1
    36   18   19 2
    37   18   20 am
    38   20   21 1
    39   20   47 1
    40   21   22 am
    41   21   48 1
    42   22   23 2
    43   22   24 1
    44   24   29 ar
    45   24   25 ar
    46   25   26 ar
    47   25   49 1
    48   26   27 ar
    49   26   50 1
    50   27   28 ar
    51   27   30 1
    52   28   29 ar
    53   28   51 1
    54   29   52 1
    55   30   31 1
    56   31   53 1
    57   31   54 1
    58   31   55 1
@<TRIPOS>MOLECULE
ZINC34786283
   60    62     0     0     0
SMALL
USER_CHARGES

@<TRIPOS>ATOM
      1 C1         -0.0183    1.5388   -0.0003 C.3       1 <0>        -0.1450
      2 C2          0.0030    0.0089   -0.0032 C.3       1 <0>        -0.0726
      3 C3          0.7080   -0.4813   -1.2416 C.2       1 <0>        -0.0681
      4 C4          0.0503   -0.7211   -2.3908 C.2       1 <0>        -0.2024
      5 S1          1.3366   -1.2648   -3.4934 S.3       1 <0>         0.2843
      6 C5          2.6627   -1.1723   -2.4696 C.2       1 <0>         0.0342
      7 C6          2.1336   -0.7174   -1.2706 C.2       1 <0>        -0.2221
      8 C7          2.9762   -0.4927   -0.0923 C.2       1 <0>         0.5850
      9 O1          3.1672   -1.3962    0.7006 O.2       1 <0>        -0.5329
     10 N1          3.5395    0.7144    0.1131 N.am      1 <0>        -0.8473
     11 N2          3.9846   -1.4761   -2.7574 N.am      1 <0>        -0.6263
     12 C8          4.3249   -1.9041   -3.9893 C.2       1 <0>         0.7095
     13 O2          3.4623   -2.1116   -4.8206 O.2       1 <0>        -0.5285
     14 N3          5.6214   -2.1021   -4.2996 N.am      1 <0>        -0.6378
     15 C9          6.6719   -1.9739   -3.2777 C.3       1 <0>         0.0836
     16 C10         7.5535   -3.2261   -3.3278 C.3       1 <0>        -0.0200
     17 N4          8.0570   -3.4148   -4.6942 N.4       1 <0>        -0.3836
     18 C11         6.9383   -3.6825   -5.6069 C.3       1 <0>        -0.0269
     19 C12         6.0257   -2.4584   -5.6684 C.3       1 <0>         0.1069
     20 C13         8.9889   -4.5501   -4.7184 C.3       1 <0>        -0.0112
     21 C14         9.6094   -4.6710   -6.1116 C.3       1 <0>        -0.1442
     22 C15        10.5799   -5.8535   -6.1368 C.3       1 <0>        -0.0724
     23 C16        11.1911   -5.9726   -7.5092 C.ar      1 <0>        -0.1019
     24 C17        10.5764   -6.7477   -8.4747 C.ar      1 <0>        -0.1156
     25 C18        11.1371   -6.8569   -9.7335 C.ar      1 <0>        -0.1151
     26 C19        12.3122   -6.1907  -10.0269 C.ar      1 <0>        -0.1124
     27 C20        12.9264   -5.4148   -9.0617 C.ar      1 <0>        -0.1152
     28 C21        12.3635   -5.3022   -7.8042 C.ar      1 <0>        -0.1154
     29 C22        -1.4214   -0.5663   -2.6754 C.3       1 <0>        -0.0704
     30 H1          1.0042    1.9164   -0.0098 H         1 <0>         0.0512
     31 H2         -0.5459    1.8965   -0.8845 H         1 <0>         0.0597
     32 H3         -0.5282    1.8934    0.8954 H         1 <0>         0.0628
     33 H4          0.5306   -0.3488    0.8809 H         1 <0>         0.0706
     34 H5         -1.0195   -0.3686    0.0062 H         1 <0>         0.0821
     35 H6          3.3873    1.4345   -0.5188 H         1 <0>         0.4038
     36 H7          4.0971    0.8631    0.8928 H         1 <0>         0.4047
     37 H8          4.6644   -1.3805   -2.0722 H         1 <0>         0.4116
     38 H9          7.2773   -1.0912   -3.4835 H         1 <0>         0.1059
     39 H10         6.2151   -1.8867   -2.2919 H         1 <0>         0.1183
     40 H11         8.3939   -3.1065   -2.6441 H         1 <0>         0.1488
     41 H12         6.9663   -4.0960   -3.0335 H         1 <0>         0.1368
     42 H13         7.3254   -3.8992   -6.6025 H         1 <0>         0.1500
     43 H14         6.3698   -4.5386   -5.2436 H         1 <0>         0.1367
     44 H15         5.1419   -2.6914   -6.2624 H         1 <0>         0.1431
     45 H16         6.5648   -1.6255   -6.1197 H         1 <0>         0.0998
     46 H17         9.7767   -4.3893   -3.9824 H         1 <0>         0.1351
     47 H18         8.4504   -5.4673   -4.4796 H         1 <0>         0.1322
     48 H19         8.8216   -4.8319   -6.8475 H         1 <0>         0.0894
     49 H20        10.1478   -3.7539   -6.3504 H         1 <0>         0.0899
     50 H21        11.3678   -5.6927   -5.4009 H         1 <0>         0.0833
     51 H22        10.0415   -6.7706   -5.8981 H         1 <0>         0.0831
     52 H23         9.6583   -7.2682   -8.2454 H         1 <0>         0.1213
     53 H24        10.6572   -7.4631  -10.4876 H         1 <0>         0.1264
     54 H25        12.7506   -6.2766  -11.0102 H         1 <0>         0.1268
     55 H26        13.8447   -4.8946   -9.2909 H         1 <0>         0.1263
     56 H27        12.8414   -4.6930   -7.0512 H         1 <0>         0.1213
     57 H28        -1.6173    0.4429   -3.0378 H         1 <0>         0.0804
     58 H29        -1.7229   -1.2894   -3.4333 H         1 <0>         0.0752
     59 H30        -1.9886   -0.7404   -1.7610 H         1 <0>         0.0828
     60 H31         8.5398   -2.5802   -4.9916 H         1 <0>         0.4243
@<TRIPOS>BOND
     1    1    2 1
     2    1   30 1
     3    1   31 1
     4    1   32 1
     5    2    3 1
     6    2   33 1
     7    2   34 1
     8    3    7 1
     9    3    4 2
    10    4    5 1
    11    4   29 1
    12    5    6 1
    13    6    7 2
    14    6   11 1
    15    7    8 1
    16    8    9 2
    17    8   10 am
    18   10   35 1
    19   10   36 1
    20   11   12 am
    21   11   37 1
    22   12   13 2
    23   12   14 am
    24   14   19 1
    25   14   15 1
    26   15   16 1
    27   15   38 1
    28   15   39 1
    29   16   17 1
    30   16   40 1
    31   16   41 1
    32   17   18 1
    33   17   20 1
    34   17   60 1
    35   18   19 1
    36   18   42 1
    37   18   43 1
    38   19   44 1
    39   19   45 1
    40   20   21 1
    41   20   46 1
    42   20   47 1
    43   21   22 1
    44   21   48 1
    45   21   49 1
    46   22   23 1
    47   22   50 1
    48   22   51 1
    49   23   28 ar
    50   23   24 ar
    51   24   25 ar
    52   24   52 1
    53   25   26 ar
    54   25   53 1
    55   26   27 ar
    56   26   54 1
    57   27   28 ar
    58   27   55 1
    59   28   56 1
    60   29   57 1
    61   29   58 1
    62   29   59 1
@<TRIPOS>MOLECULE
ZINC44803222
   52    53     0     0     0
SMALL
USER_CHARGES

@<TRIPOS>ATOM
      1 C1         -0.0187    1.5258    0.0104 C.3       1 <0>        -0.1812
      2 C2          0.0021   -0.0041    0.0020 C.3       1 <0>         0.0825
      3 H1          0.5123   -0.3556   -0.8948 H         1 <0>         0.1513
      4 C3         -1.4117   -0.5257    0.0127 C.ar      1 <0>        -0.1761
      5 C4         -2.1219   -0.5704    1.1982 C.ar      1 <0>        -0.0816
      6 C5         -3.4179   -1.0486    1.2108 C.ar      1 <0>        -0.1220
      7 C6         -4.0069   -1.4837    0.0324 C.ar      1 <0>         0.1413
      8 C7         -3.2924   -1.4373   -1.1558 C.ar      1 <0>        -0.1832
      9 C8         -1.9985   -0.9534   -1.1639 C.ar      1 <0>        -0.0437
     10 O1         -5.2816   -1.9549    0.0422 O.3       1 <0>        -0.3139
     11 C9         -5.8236   -2.3857   -1.2078 C.3       1 <0>         0.4117
     12 F1         -5.8254   -1.3155   -2.1089 F         1 <0>        -0.1931
     13 F2         -5.0421   -3.4263   -1.7212 F         1 <0>        -0.1935
     14 N1          0.7126   -0.4907    1.1921 N.4       1 <0>        -0.4956
     15 C10         2.1220   -0.0825    1.1220 C.3       1 <0>         0.0025
     16 H2          2.1813    0.9981    0.9920 H         1 <0>         0.1748
     17 C11         2.7956   -0.7766   -0.0635 C.3       1 <0>        -0.1838
     18 C12         2.8224   -0.4742    2.3976 C.2       1 <0>         0.5157
     19 O2          2.2083   -1.0376    3.2780 O.2       1 <0>        -0.4511
     20 N2          4.1316   -0.1981    2.5596 N.am      1 <0>        -0.6749
     21 C13         4.7580   -0.5484    3.7004 C.2       1 <0>         0.6919
     22 O3          4.1423   -1.1132    4.5830 O.2       1 <0>        -0.5162
     23 N3          6.0672   -0.2723    3.8624 N.am      1 <0>        -0.7221
     24 C14         6.7482   -0.6530    5.1024 C.3       1 <0>         0.1771
     25 C15         8.1940   -0.2343    5.0305 C.ar      1 <0>        -0.1222
     26 C16         9.1392   -1.0995    4.5117 C.ar      1 <0>        -0.0982
     27 C17        10.4654   -0.7154    4.4457 C.ar      1 <0>        -0.1203
     28 C18        10.8465    0.5340    4.8981 C.ar      1 <0>        -0.1035
     29 C19         9.9012    1.3995    5.4161 C.ar      1 <0>        -0.1202
     30 C20         8.5743    1.0171    5.4781 C.ar      1 <0>        -0.0982
     31 H3          1.0039    1.9031    0.0027 H         1 <0>         0.0836
     32 H4         -0.5459    1.8868   -0.8726 H         1 <0>         0.1126
     33 H5         -0.5289    1.8773    0.9072 H         1 <0>         0.0862
     34 H6         -1.6629   -0.2316    2.1152 H         1 <0>         0.1316
     35 H7         -3.9719   -1.0840    2.1371 H         1 <0>         0.1493
     36 H8         -3.7487   -1.7754   -2.0744 H         1 <0>         0.1473
     37 H9         -1.4433   -0.9130   -2.0895 H         1 <0>         0.1418
     38 H10        -6.8446   -2.7373   -1.0593 H         1 <0>         0.1924
     39 H11         0.2896   -0.0986    2.0201 H         1 <0>         0.4325
     40 H12         2.7363   -1.8572    0.0665 H         1 <0>         0.0944
     41 H13         2.2889   -0.4933   -0.9861 H         1 <0>         0.1029
     42 H14         3.8414   -0.4737   -0.1155 H         1 <0>         0.1133
     43 H15         4.6230    0.2527    1.8552 H         1 <0>         0.4177
     44 H16         6.5586    0.1785    3.1580 H         1 <0>         0.4036
     45 H17         6.2683   -0.1586    5.9470 H         1 <0>         0.0839
     46 H18         6.6889   -1.7336    5.2324 H         1 <0>         0.0840
     47 H19         8.8414   -2.0756    4.1582 H         1 <0>         0.1246
     48 H20        11.2040   -1.3916    4.0410 H         1 <0>         0.1277
     49 H21        11.8828    0.8338    4.8472 H         1 <0>         0.1275
     50 H22        10.1990    2.3755    5.7698 H         1 <0>         0.1277
     51 H23         7.8352    1.6947    5.8793 H         1 <0>         0.1246
     52 H24         0.6554   -1.4974    1.2298 H         1 <0>         0.4364
@<TRIPOS>BOND
     1    1    2 1
     2    1   31 1
     3    1   32 1
     4    1   33 1
     5    2    3 1
     6    2    4 1
     7    2   14 1
     8    4    9 ar
     9    4    5 ar
    10    5    6 ar
    11    5   34 1
    12    6    7 ar
    13    6   35 1
    14    7    8 ar
    15    7   10 1
    16    8    9 ar
    17    8   36 1
    18    9   37 1
    19   10   11 1
    20   11   12 1
    21   11   13 1
    22   11   38 1
    23   14   15 1
    24   14   39 1
    25   14   52 1
    26   15   16 1
    27   15   17 1
    28   15   18 1
    29   17   40 1
    30   17   41 1
    31   17   42 1
    32   18   19 2
    33   18   20 am
    34   20   21 am
    35   20   43 1
    36   21   22 2
    37   21   23 am
    38   23   24 1
    39   23   44 1
    40   24   25 1
    41   24   45 1
    42   24   46 1
    43   25   30 ar
    44   25   26 ar
    45   26   27 ar
    46   26   47 1
    47   27   28 ar
    48   27   48 1
    49   28   29 ar
    50   28   49 1
    51   29   30 ar
    52   29   50 1
    53   30   51 1
@<TRIPOS>MOLECULE
ZINC13478182
   46    48     0     0     0
SMALL
USER_CHARGES

@<TRIPOS>ATOM
      1 C1          2.8882    1.1273    0.4891 C.3       1 <0>         0.0277
      2 O1          2.3293   -0.1507    0.1785 O.3       1 <0>        -0.3243
      3 C2          2.6428   -0.6838   -1.0324 C.ar      1 <0>         0.1035
      4 C3          3.4746    0.0053   -1.9002 C.ar      1 <0>        -0.1869
      5 C4          3.7924   -0.5380   -3.1310 C.ar      1 <0>        -0.0876
      6 C5          3.2827   -1.7693   -3.4999 C.ar      1 <0>        -0.1350
      7 C6          2.4527   -2.4632   -2.6400 C.ar      1 <0>        -0.0964
      8 C7          2.1332   -1.9266   -1.4013 C.ar      1 <0>         0.1043
      9 N1          1.2958   -2.6304   -0.5256 N.am      1 <0>        -0.6484
     10 C8          1.1534   -3.9643   -0.6556 C.2       1 <0>         0.5102
     11 O2          1.8298   -4.5710   -1.4592 O.2       1 <0>        -0.5154
     12 C9          0.1537   -4.7021    0.1972 C.3       1 <0>        -0.0919
     13 C10         0.1912   -6.1701   -0.1410 C.2       1 <0>         0.0835
     14 C11        -0.5225   -6.6765   -1.1761 C.2       1 <0>        -0.2519
     15 S1         -0.0805   -8.4032   -1.0722 S.3       1 <0>         0.5817
     16 C12         0.9489   -8.3005    0.2553 C.cat     1 <0>         0.2053
     17 N2          0.9252   -7.0195    0.5543 N.pl3     1 <0>        -0.4955
     18 N3          1.6561   -9.3199    0.8803 N.pl3     1 <0>        -0.5734
     19 C13         1.5596  -10.5846    0.4246 C.2       1 <0>         0.5037
     20 N4          2.2457  -11.5736    1.0309 N.pl3     1 <0>        -0.5763
     21 C14         2.2393  -12.8632    0.4892 C.ar      1 <0>         0.0841
     22 C15         2.3364  -13.0414   -0.8848 C.ar      1 <0>        -0.0816
     23 C16         2.3298  -14.3160   -1.4165 C.ar      1 <0>        -0.1015
     24 C17         2.2267  -15.4142   -0.5824 C.ar      1 <0>        -0.0917
     25 C18         2.1299  -15.2402    0.7860 C.ar      1 <0>        -0.1053
     26 C19         2.1417  -13.9685    1.3245 C.ar      1 <0>        -0.1041
     27 S2          0.5655  -10.9348   -0.9246 S.2       1 <0>        -0.3988
     28 H1          3.9761    1.0624    0.4704 H         1 <0>         0.0588
     29 H2          2.5551    1.8582   -0.2478 H         1 <0>         0.0603
     30 H3          2.5596    1.4361    1.4814 H         1 <0>         0.1045
     31 H4          3.8745    0.9672   -1.6152 H         1 <0>         0.1361
     32 H5          4.4404    0.0009   -3.8065 H         1 <0>         0.1310
     33 H6          3.5334   -2.1896   -4.4627 H         1 <0>         0.1313
     34 H7          2.0559   -3.4247   -2.9307 H         1 <0>         0.1552
     35 H8          0.8187   -2.1577    0.1742 H         1 <0>         0.4195
     36 H9          0.4028   -4.5652    1.2495 H         1 <0>         0.1218
     37 H10        -0.8456   -4.3107    0.0065 H         1 <0>         0.1495
     38 H11        -1.1784   -6.1740   -1.8716 H         1 <0>         0.2233
     39 H12         2.7438  -11.3911    1.8430 H         1 <0>         0.4229
     40 H13         2.4166  -12.1841   -1.5367 H         1 <0>         0.1413
     41 H14         2.4049  -14.4552   -2.4848 H         1 <0>         0.1389
     42 H15         2.2214  -16.4099   -1.0007 H         1 <0>         0.1365
     43 H16         2.0492  -16.0999    1.4347 H         1 <0>         0.1388
     44 H17         2.0705  -13.8335    2.3937 H         1 <0>         0.1319
     45 H18         1.4529   -6.6941    1.3003 H         1 <0>         0.4299
     46 H19         2.2193   -9.1215    1.6447 H         1 <0>         0.4306
@<TRIPOS>BOND
     1    1    2 1
     2    1   28 1
     3    1   29 1
     4    1   30 1
     5    2    3 1
     6    3    8 ar
     7    3    4 ar
     8    4    5 ar
     9    4   31 1
    10    5    6 ar
    11    5   32 1
    12    6    7 ar
    13    6   33 1
    14    7    8 ar
    15    7   34 1
    16    8    9 1
    17    9   10 am
    18    9   35 1
    19   10   11 2
    20   10   12 1
    21   12   13 1
    22   12   36 1
    23   12   37 1
    24   13   17 1
    25   13   14 2
    26   14   15 1
    27   14   38 1
    28   15   16 1
    29   16   17 2
    30   16   18 1
    31   17   45 1
    32   18   19 1
    33   18   46 1
    34   19   20 1
    35   19   27 2
    36   20   21 1
    37   20   39 1
    38   21   26 ar
    39   21   22 ar
    40   22   23 ar
    41   22   40 1
    42   23   24 ar
    43   23   41 1
    44   24   25 ar
    45   24   42 1
    46   25   26 ar
    47   25   43 1
    48   26   44 1
@<TRIPOS>MOLECULE
ZINC04556326
   47    50     0     0     0
SMALL
USER_CHARGES
ethyl-(3-hydroxy-4-methoxy-phenyl)-BLAHol
@<TRIPOS>ATOM
      1 C1          5.0339    0.7417    8.5761 C.3       1 <0>        -0.1890
      2 C2          3.5758    1.1484    8.3535 C.3       1 <0>        -0.0043
      3 C3          3.4890   -0.3240    6.4327 C.3       1 <0>        -0.0023
      4 C4          2.8042   -0.5217    5.0776 C.3       1 <0>        -0.0872
      5 C5          3.2307    0.6172    4.1580 C.2       1 <0>        -0.0034
      6 C6          3.7721    1.7429    4.6827 C.2       1 <0>        -0.3189
      7 S1          4.1149    2.7766    3.2848 S.3       1 <0>         0.2333
      8 C7          3.5571    1.7389    2.0436 C.2       1 <0>         0.1585
      9 C8          3.1005    0.5963    2.7137 C.2       1 <0>        -0.2555
     10 C9          2.5336   -0.4979    1.8841 C.2       1 <0>         0.4575
     11 N1          2.3135   -0.2527    0.6221 N.2       1 <0>        -0.6234
     12 C10         2.4893    1.0459   -0.0156 C.3       1 <0>         0.3986
     13 H1          2.7988    0.8940   -1.0497 H         1 <0>         0.1304
     14 N2          3.5058    1.8599    0.6759 N.pl3     1 <0>        -0.6883
     15 C11         1.1751    1.7833    0.0004 C.ar      1 <0>        -0.1520
     16 C12         1.1599    3.1657    0.0080 C.ar      1 <0>        -0.0701
     17 C13        -0.0431    3.8467    0.0228 C.ar      1 <0>        -0.1963
     18 C14        -1.2371    3.1437    0.0304 C.ar      1 <0>         0.1150
     19 C15        -1.2218    1.7523    0.0174 C.ar      1 <0>         0.0743
     20 C16        -0.0126    1.0758    0.0080 C.ar      1 <0>        -0.0744
     21 O1         -2.3911    1.0578    0.0191 O.3       1 <0>        -0.4812
     22 O2         -2.4214    3.8121    0.0444 O.3       1 <0>        -0.3046
     23 C17        -2.3605    5.2398    0.0507 C.3       1 <0>         0.0232
     24 O3          2.2540   -1.7084    2.4201 O.3       1 <0>        -0.4610
     25 C18         4.0130    2.0221    6.1325 C.3       1 <0>         0.1100
     26 H2          5.6864    1.4007    8.0032 H         1 <0>         0.0797
     27 H3          5.2759    0.8224    9.6358 H         1 <0>         0.1064
     28 H4          5.1782   -0.2876    8.2477 H         1 <0>         0.0812
     29 H5          3.4315    2.1777    8.6818 H         1 <0>         0.1309
     30 H6          2.9233    0.4895    8.9263 H         1 <0>         0.1321
     31 H7          4.5613   -0.4857    6.3228 H         1 <0>         0.1338
     32 H8          3.0865   -1.0421    7.1472 H         1 <0>         0.1366
     33 H9          3.1089   -1.4757    4.6472 H         1 <0>         0.1324
     34 H10         1.7219   -0.5055    5.2065 H         1 <0>         0.1063
     35 H11         4.1055    2.4489    0.1918 H         1 <0>         0.4246
     36 H12         2.0898    3.7148    0.0021 H         1 <0>         0.1237
     37 H13        -0.0522    4.9266    0.0280 H         1 <0>         0.1365
     38 H14         0.0021   -0.0041    0.0020 H         1 <0>         0.1446
     39 H15        -2.7251    0.8522    0.9030 H         1 <0>         0.3873
     40 H16        -1.8235    5.5767    0.9374 H         1 <0>         0.0558
     41 H17        -1.8399    5.5851   -0.8425 H         1 <0>         0.0592
     42 H18        -3.3717    5.6465    0.0619 H         1 <0>         0.1065
     43 H19         1.8891   -2.3434    1.7887 H         1 <0>         0.4169
     44 H20         5.0761    1.9264    6.3535 H         1 <0>         0.1411
     45 H21         3.6761    3.0303    6.3736 H         1 <0>         0.1371
     46 N3          3.2237    1.0448    6.9210 N.4       1 <0>        -0.3939
     47 H22         2.2246    1.2525    6.8071 H         1 <0>         0.4322
@<TRIPOS>BOND
     1    1    2 1
     2    1   26 1
     3    1   27 1
     4    1   28 1
     5    2   29 1
     6    2   30 1
     7    2   46 1
     8    3    4 1
     9    3   31 1
    10    3   32 1
    11    3   46 1
    12    4    5 1
    13    4   33 1
    14    4   34 1
    15    5    9 1
    16    5    6 2
    17    6    7 1
    18    6   25 1
    19    7    8 1
    20    8   14 1
    21    8    9 2
    22    9   10 1
    23   10   11 2
    24   10   24 1
    25   11   12 1
    26   12   13 1
    27   12   14 1
    28   12   15 1
    29   14   35 1
    30   15   20 ar
    31   15   16 ar
    32   16   17 ar
    33   16   36 1
    34   17   18 ar
    35   17   37 1
    36   18   19 ar
    37   18   22 1
    38   19   20 ar
    39   19   21 1
    40   20   38 1
    41   21   39 1
    42   22   23 1
    43   23   40 1
    44   23   41 1
    45   23   42 1
    46   24   43 1
    47   25   44 1
    48   25   45 1
    49   25   46 1
    50   46   47 1
@<TRIPOS>MOLECULE
ZINC19219210
   65    69     0     0     0
SMALL
USER_CHARGES
(4S)-1'-[(2S)-2-hydroxy-2-(5-methoxy-2-methyl-1H-indol-3-yl)ethyl]-6-methyl-spiro[chroman-2,4'-piperidine]-4-ol
@<TRIPOS>ATOM
      1 C1          3.7615    9.2157   -5.6856 C.3       1 <0>        -0.1198
      2 C2          3.7135    7.7341   -5.4141 C.ar      1 <0>        -0.1080
      3 C3          4.6876    7.1426   -4.6308 C.ar      1 <0>        -0.0782
      4 C4          4.6425    5.7861   -4.3828 C.ar      1 <0>        -0.1453
      5 C5          3.6197    5.0097   -4.9184 C.ar      1 <0>         0.1232
      6 C6          2.6455    5.6047   -5.7006 C.ar      1 <0>        -0.1579
      7 C7          2.6963    6.9668   -5.9470 C.ar      1 <0>        -0.0584
      8 C8          1.5157    4.8020   -6.2942 C.3       1 <0>         0.1626
      9 H1          0.5814    4.9950   -5.7467 H         1 <0>         0.0662
     10 C9          1.8787    3.3149   -6.2832 C.3       1 <0>        -0.1805
     11 C10         2.4021    2.9571   -4.8878 C.3       1 <0>         0.1164
     12 O1          3.6116    3.6768   -4.6551 O.3       1 <0>        -0.3072
     13 C11         2.6707    1.4529   -4.8141 C.3       1 <0>        -0.1304
     14 C12         3.1291    1.0885   -3.4001 C.3       1 <0>        -0.0037
     15 N1          2.0915    1.4705   -2.4339 N.4       1 <0>        -0.3943
     16 C13         1.8573    2.9202   -2.4521 C.3       1 <0>        -0.0039
     17 C14         1.3589    3.3402   -3.8370 C.3       1 <0>        -0.1707
     18 C15         2.4355    1.0098   -1.0821 C.3       1 <0>         0.0101
     19 C16         1.3861    1.5133   -0.0891 C.3       1 <0>         0.1852
     20 H2          1.3040    2.6101   -0.1054 H         1 <0>         0.0764
     21 C17         1.7336    1.0323    1.2961 C.2       1 <0>        -0.2566
     22 C18         2.2425    1.7723    2.2938 C.2       1 <0>         0.1258
     23 N2          2.4242    0.9954    3.4052 N.pl3     1 <0>        -0.5947
     24 H3          2.8286    1.4396    4.3267 H         1 <0>         0.4476
     25 C19         2.0352   -0.3006    3.1393 C.ar      1 <0>         0.0716
     26 C20         1.5860   -0.3328    1.8068 C.ar      1 <0>        -0.0450
     27 C21         1.1254   -1.5296    1.2542 C.ar      1 <0>        -0.1224
     28 C22         1.1146   -2.6763    2.0232 C.ar      1 <0>         0.1130
     29 C23         1.5599   -2.6412    3.3419 C.ar      1 <0>        -0.1771
     30 C24         2.0167   -1.4665    3.8970 C.ar      1 <0>        -0.0817
     31 O2          0.6667   -3.8447    1.4906 O.3       1 <0>        -0.3180
     32 C25         0.6823   -4.9933    2.3406 C.3       1 <0>         0.0222
     33 C26         2.5629    3.2421    2.2041 C.3       1 <0>        -0.1093
     34 O3          0.1005    1.0111   -0.4592 O.3       1 <0>        -0.6055
     35 O4          1.2877    5.2251   -7.6400 O.3       1 <0>        -0.5861
     36 H4          4.6362    9.6527   -5.1816 H         1 <0>         0.0692
     37 H5          2.8444    9.6883   -5.3040 H         1 <0>         0.0722
     38 H6          3.8389    9.3875   -6.7693 H         1 <0>         0.0737
     39 H7          5.4829    7.7422   -4.2131 H         1 <0>         0.1340
     40 H8          5.4040    5.3253   -3.7711 H         1 <0>         0.1317
     41 H9          1.9369    7.4310   -6.5589 H         1 <0>         0.1321
     42 H10         0.9846    2.7175   -6.5151 H         1 <0>         0.0927
     43 H11         2.6550    3.1213   -7.0381 H         1 <0>         0.0977
     44 H12         1.7486    0.9036   -5.0549 H         1 <0>         0.1102
     45 H13         3.4562    1.1849   -5.5360 H         1 <0>         0.1236
     46 H14         3.3045    0.0043   -3.3395 H         1 <0>         0.1353
     47 H15         4.0612    1.6242   -3.1673 H         1 <0>         0.1328
     48 H16         1.1008    3.1789   -1.6966 H         1 <0>         0.1354
     49 H17         2.7965    3.4462   -2.2257 H         1 <0>         0.1284
     50 H18         1.2010    4.4286   -3.8569 H         1 <0>         0.1166
     51 H19         0.4108    2.8281   -4.0579 H         1 <0>         0.1062
     52 H20         2.4591   -0.0898   -1.0644 H         1 <0>         0.1383
     53 H21         3.4240    1.4023   -0.8014 H         1 <0>         0.1356
     54 H22         0.7801   -1.5582    0.2313 H         1 <0>         0.1305
     55 H23         1.5473   -3.5437    3.9349 H         1 <0>         0.1359
     56 H24         2.3598   -1.4506    4.9209 H         1 <0>         0.1276
     57 H25         0.2972   -5.8633    1.7885 H         1 <0>         0.1052
     58 H26         0.0484   -4.8072    3.2201 H         1 <0>         0.0582
     59 H27         1.7133   -5.1935    2.6675 H         1 <0>         0.0576
     60 H28         2.9664    3.5888    3.1669 H         1 <0>         0.0786
     61 H29         1.6470    3.8032    1.9670 H         1 <0>         0.0873
     62 H30         3.3092    3.4071    1.4130 H         1 <0>         0.0840
     63 H31        -0.7844    1.2687    0.1414 H         1 <0>         0.4397
     64 H32         0.4966    4.7506   -8.2392 H         1 <0>         0.4172
     65 H33         1.1559    0.9756   -2.7335 H         1 <0>         0.4471
@<TRIPOS>BOND
     1    1    2 1
     2    1   36 1
     3    1   37 1
     4    1   38 1
     5    2    7 ar
     6    2    3 ar
     7    3    4 ar
     8    3   39 1
     9    4    5 ar
    10    4   40 1
    11    5   12 1
    12    5    6 ar
    13    6    7 ar
    14    6    8 1
    15    7   41 1
    16    8    9 1
    17    8   10 1
    18    8   35 1
    19   10   11 1
    20   10   42 1
    21   10   43 1
    22   11   17 1
    23   11   12 1
    24   11   13 1
    25   13   14 1
    26   13   44 1
    27   13   45 1
    28   14   15 1
    29   14   46 1
    30   14   47 1
    31   15   16 1
    32   15   18 1
    33   15   65 1
    34   16   17 1
    35   16   48 1
    36   16   49 1
    37   17   50 1
    38   17   51 1
    39   18   19 1
    40   18   52 1
    41   18   53 1
    42   19   20 1
    43   19   21 1
    44   19   34 1
    45   21   26 1
    46   21   22 2
    47   22   23 1
    48   22   33 1
    49   23   24 1
    50   23   25 1
    51   25   30 ar
    52   25   26 ar
    53   26   27 ar
    54   27   28 ar
    55   27   54 1
    56   28   29 ar
    57   28   31 1
    58   29   30 ar
    59   29   55 1
    60   30   56 1
    61   31   32 1
    62   32   57 1
    63   32   58 1
    64   32   59 1
    65   33   60 1
    66   33   61 1
    67   33   62 1
    68   34   63 1
    69   35   64 1
@<TRIPOS>MOLECULE
ZINC44327207
   32    32     0     0     0
SMALL
USER_CHARGES

@<TRIPOS>ATOM
      1 C1         -0.0173    1.4248    0.0099 C.3       1 <0>         0.0180
      2 O1          0.0021   -0.0041    0.0020 O.3       1 <0>        -0.2881
      3 C2          0.6063   -0.6076   -1.0566 C.ar      1 <0>         0.1408
      4 C3          1.1729    0.1593   -2.0622 C.ar      1 <0>        -0.1940
      5 C4          1.7872   -0.4549   -3.1375 C.ar      1 <0>        -0.0712
      6 C5          1.8378   -1.8351   -3.2133 C.ar      1 <0>        -0.0935
      7 C6          1.2735   -2.6067   -2.2125 C.ar      1 <0>        -0.0619
      8 C7          0.6616   -1.9958   -1.1288 C.ar      1 <0>         0.1323
      9 O2          0.1117   -2.7521   -0.1412 O.3       1 <0>        -0.4644
     10 Br1         1.3438   -4.4933   -2.3194 Br        1 <0>         0.0269
     11 Br2         2.6791   -2.6693   -4.6872 Br        1 <0>         0.0055
     12 C8          2.4027    0.3812   -4.2299 C.3       1 <0>        -0.1014
     13 C9          3.9158    0.4629   -4.0184 C.3       1 <0>         0.0370
     14 H1          4.3290   -0.5438   -3.9565 H         1 <0>         0.1792
     15 C10         4.5460    1.1943   -5.1755 C.2       1 <0>         0.4580
     16 O3          4.8442    2.3598   -5.0633 O.2       1 <0>        -0.4805
     17 O4          4.7761    0.5510   -6.3309 O.3       1 <0>        -0.3221
     18 C11         5.3761    1.3059   -7.3855 C.3       1 <0>         0.0280
     19 N1          4.1975    1.1854   -2.7707 N.4       1 <0>        -0.6229
     20 H2          1.0053    1.8021    0.0021 H         1 <0>         0.0583
     21 H3         -0.5445    1.7859   -0.8732 H         1 <0>         0.0652
     22 H4         -0.5275    1.7763    0.9067 H         1 <0>         0.1167
     23 H5          1.1342    1.2371   -2.0059 H         1 <0>         0.1532
     24 H6         -0.8165   -2.9788   -0.2900 H         1 <0>         0.4065
     25 H7          2.1953   -0.0756   -5.1976 H         1 <0>         0.1446
     26 H8          1.9773    1.3844   -4.2030 H         1 <0>         0.1213
     27 H9          4.7322    2.1472   -7.6419 H         1 <0>         0.0759
     28 H10         6.3472    1.6779   -7.0590 H         1 <0>         0.0752
     29 H11         5.5065    0.6684   -8.2600 H         1 <0>         0.1227
     30 H12         3.7755    0.6957   -1.9959 H         1 <0>         0.4456
     31 H13         5.1953    1.2393   -2.6312 H         1 <0>         0.4459
     32 H14         3.8150    2.1173   -2.8279 H         1 <0>         0.4429
@<TRIPOS>BOND
     1    1    2 1
     2    1   20 1
     3    1   21 1
     4    1   22 1
     5    2    3 1
     6    3    8 ar
     7    3    4 ar
     8    4    5 ar
     9    4   23 1
    10    5    6 ar
    11    5   12 1
    12    6    7 ar
    13    6   11 1
    14    7    8 ar
    15    7   10 1
    16    8    9 1
    17    9   24 1
    18   12   13 1
    19   12   25 1
    20   12   26 1
    21   13   14 1
    22   13   15 1
    23   13   19 1
    24   15   16 2
    25   15   17 1
    26   17   18 1
    27   18   27 1
    28   18   28 1
    29   18   29 1
    30   19   30 1
    31   19   31 1
    32   19   32 1
@<TRIPOS>MOLECULE
ZINC14922467
   48    50     0     0     0
SMALL
USER_CHARGES

@<TRIPOS>ATOM
      1 C1         -0.7744   -2.7628    2.7237 C.3       1 <0>        -0.1386
      2 C2         -0.3820   -2.2159    1.3753 C.ar      1 <0>        -0.0653
      3 C3         -0.3012   -3.0605    0.2837 C.ar      1 <0>        -0.1139
      4 C4          0.0587   -2.5590   -0.9529 C.ar      1 <0>        -0.0802
      5 C5          0.3375   -1.2127   -1.0984 C.ar      1 <0>        -0.1189
      6 C6          0.2559   -0.3682   -0.0073 C.ar      1 <0>        -0.0842
      7 C7         -0.1083   -0.8691    1.2288 C.ar      1 <0>        -0.1618
      8 C8         -0.2025    0.0526    2.4173 C.3       1 <0>         0.0438
      9 N1         -1.6154    0.2978    2.7361 N.4       1 <0>        -0.3830
     10 C9         -2.2418    1.0480    1.6394 C.3       1 <0>        -0.0470
     11 C10        -1.7091    1.0765    3.9783 C.3       1 <0>         0.0740
     12 C11        -3.1566    1.2230    4.3712 C.ar      1 <0>         0.3814
     13 N2         -3.8591    2.2509    3.9276 N.ar      1 <0>        -0.6186
     14 C12        -5.1377    2.3838    4.2725 C.ar      1 <0>         0.6400
     15 N3         -5.7078    1.4815    5.0638 N.ar      1 <0>        -0.6215
     16 C13        -4.9984    0.4497    5.5077 C.ar      1 <0>         0.6390
     17 N4         -3.7214    0.3208    5.1540 N.ar      1 <0>        -0.6179
     18 N5         -5.5862   -0.4906    6.3309 N.pl3     1 <0>        -0.6111
     19 C14        -6.9569   -0.4215    6.6052 C.ar      1 <0>         0.1293
     20 C15        -7.8387    0.0314    5.6326 C.ar      1 <0>        -0.0799
     21 C16        -9.1910    0.0984    5.9053 C.ar      1 <0>        -0.1351
     22 C17        -9.6678   -0.2855    7.1473 C.ar      1 <0>         0.0984
     23 C18        -8.7903   -0.7369    8.1187 C.ar      1 <0>        -0.1308
     24 C19        -7.4378   -0.8110    7.8484 C.ar      1 <0>        -0.1048
     25 F1        -10.9909   -0.2192    7.4119 F         1 <0>        -0.1326
     26 N6         -5.8703    3.4576    3.8091 N.pl3     1 <0>        -0.7890
     27 H1         -1.8470   -2.6348    2.8695 H         1 <0>         0.0719
     28 H2         -0.5250   -3.8227    2.7725 H         1 <0>         0.0894
     29 H3         -0.2351   -2.2263    3.5043 H         1 <0>         0.0733
     30 H4         -0.5190   -4.1122    0.3974 H         1 <0>         0.1353
     31 H5          0.1225   -3.2189   -1.8055 H         1 <0>         0.1359
     32 H6          0.6195   -0.8209   -2.0645 H         1 <0>         0.1363
     33 H7          0.4740    0.6834   -0.1209 H         1 <0>         0.1343
     34 H8          0.2887   -0.4083    3.2743 H         1 <0>         0.1413
     35 H9          0.2866    0.9982    2.1835 H         1 <0>         0.1420
     36 H10        -2.0959    0.5111    0.7022 H         1 <0>         0.1243
     37 H11        -3.3088    1.1544    1.8350 H         1 <0>         0.1165
     38 H12        -1.7853    2.0352    1.5674 H         1 <0>         0.1311
     39 H13        -1.1676    0.5614    4.7717 H         1 <0>         0.1595
     40 H14        -1.2732    2.0633    3.8222 H         1 <0>         0.1613
     41 H15        -5.0491   -1.1990    6.7190 H         1 <0>         0.4324
     42 H16        -7.4672    0.3313    4.6639 H         1 <0>         0.1396
     43 H17        -9.8770    0.4509    5.1493 H         1 <0>         0.1423
     44 H18        -9.1642   -1.0356    9.0869 H         1 <0>         0.1461
     45 H19        -6.7543   -1.1673    8.6048 H         1 <0>         0.1399
     46 H20        -5.4534    4.1161    3.2317 H         1 <0>         0.4251
     47 H21        -6.8021    3.5538    4.0609 H         1 <0>         0.4267
     48 H22        -2.0912   -0.5840    2.8552 H         1 <0>         0.4238
@<TRIPOS>BOND
     1    1    2 1
     2    1   27 1
     3    1   28 1
     4    1   29 1
     5    2    7 ar
     6    2    3 ar
     7    3    4 ar
     8    3   30 1
     9    4    5 ar
    10    4   31 1
    11    5    6 ar
    12    5   32 1
    13    6    7 ar
    14    6   33 1
    15    7    8 1
    16    8    9 1
    17    8   34 1
    18    8   35 1
    19    9   10 1
    20    9   11 1
    21    9   48 1
    22   10   36 1
    23   10   37 1
    24   10   38 1
    25   11   12 1
    26   11   39 1
    27   11   40 1
    28   12   17 ar
    29   12   13 ar
    30   13   14 ar
    31   14   15 ar
    32   14   26 1
    33   15   16 ar
    34   16   17 ar
    35   16   18 1
    36   18   19 1
    37   18   41 1
    38   19   24 ar
    39   19   20 ar
    40   20   21 ar
    41   20   42 1
    42   21   22 ar
    43   21   43 1
    44   22   23 ar
    45   22   25 1
    46   23   24 ar
    47   23   44 1
    48   24   45 1
    49   26   46 1
    50   26   47 1
@<TRIPOS>MOLECULE
ZINC64435765
   51    54     0     0     0
SMALL
USER_CHARGES

@<TRIPOS>ATOM
      1 C1         -0.0167    1.3781    0.0096 C.ar      1 <0>        -0.1124
      2 C2          1.1709    2.0855    0.0021 C.ar      1 <0>        -0.1135
      3 C3          2.3773    1.4107   -0.0130 C.ar      1 <0>        -0.1023
      4 C4          2.3960    0.0285   -0.0201 C.ar      1 <0>        -0.0890
      5 C5          1.2084   -0.6789   -0.0117 C.ar      1 <0>        -0.1140
      6 C6          0.0021   -0.0041    0.0020 C.ar      1 <0>        -0.1132
      7 C7          3.7112   -0.7071   -0.0376 C.3       1 <0>         0.1167
      8 H1          4.5187   -0.0667    0.3173 H         1 <0>         0.1170
      9 C8          4.0211   -1.2576   -1.4562 C.3       1 <0>        -0.1448
     10 C9          4.9006   -2.4847   -1.1156 C.3       1 <0>         0.1068
     11 H2          5.9555   -2.2376   -1.2348 H         1 <0>         0.1048
     12 N1          4.6066   -2.7984    0.2919 N.pl3     1 <0>        -0.4689
     13 N2          3.6323   -1.9559    0.7631 N.3       1 <0>        -0.4262
     14 C10         5.2274   -3.8035    1.0371 C.ar      1 <0>         0.2520
     15 C11         6.2096   -4.5953    0.4556 C.ar      1 <0>        -0.1871
     16 C12         6.8217   -5.5880    1.1954 C.ar      1 <0>        -0.0773
     17 C13         6.4575   -5.7945    2.5133 C.ar      1 <0>        -0.1700
     18 C14         5.4801   -5.0081    3.0952 C.ar      1 <0>        -0.0748
     19 C15         4.8680   -4.0099    2.3629 C.ar      1 <0>        -0.1677
     20 C16         4.5354   -3.6497   -1.9990 C.2       1 <0>         0.5026
     21 O1          3.8152   -4.5291   -1.5760 O.2       1 <0>        -0.5085
     22 N3          5.0091   -3.7144   -3.2591 N.am      1 <0>        -0.7358
     23 C17         4.6541   -4.8470   -4.1178 C.3       1 <0>         0.1216
     24 C18         5.3177   -4.6774   -5.4859 C.3       1 <0>        -0.0754
     25 C19         4.9525   -5.8424   -6.3693 C.2       1 <0>         0.0326
     26 H3          3.2478   -7.5208   -8.3715 H         1 <0>         0.4692
     27 C20         3.8382   -5.9491   -7.1180 C.2       1 <0>         0.0416
     28 N4          3.9059   -7.1566   -7.7590 N.pl3     1 <0>        -0.5089
     29 C21         5.0600   -7.7462   -7.3795 C.cat     1 <0>         0.3114
     30 N5          5.6831   -6.9523   -6.5522 N.pl3     1 <0>        -0.4740
     31 H4         -0.9591    1.9053    0.0259 H         1 <0>         0.1263
     32 H5          1.1563    3.1654    0.0076 H         1 <0>         0.1279
     33 H6          3.3051    1.9634   -0.0196 H         1 <0>         0.1266
     34 H7          1.2231   -1.7588   -0.0176 H         1 <0>         0.1169
     35 H8         -0.9258   -0.5567    0.0082 H         1 <0>         0.1254
     36 H9          3.1073   -1.5600   -1.9678 H         1 <0>         0.0862
     37 H10         4.5763   -0.5290   -2.0469 H         1 <0>         0.1056
     38 H11         2.7197   -2.3790    0.6841 H         1 <0>         0.3319
     39 H12         6.4940   -4.4350   -0.5739 H         1 <0>         0.1052
     40 H13         7.5853   -6.2039    0.7439 H         1 <0>         0.1191
     41 H14         6.9372   -6.5719    3.0894 H         1 <0>         0.1204
     42 H15         5.1980   -5.1720    4.1248 H         1 <0>         0.1247
     43 H16         4.1080   -3.3931    2.8193 H         1 <0>         0.1295
     44 H17         5.5851   -3.0111   -3.5974 H         1 <0>         0.4054
     45 H18         4.9995   -5.7733   -3.6588 H         1 <0>         0.0721
     46 H19         3.5717   -4.8842   -4.2412 H         1 <0>         0.0775
     47 H20         4.9723   -3.7511   -5.9450 H         1 <0>         0.1203
     48 H21         6.4001   -4.6402   -5.3626 H         1 <0>         0.1049
     49 H22         3.0437   -5.2218   -7.1971 H         1 <0>         0.2278
     50 H23         5.4111   -8.7129   -7.7092 H         1 <0>         0.2682
     51 H24         6.5388   -7.1365   -6.1341 H         1 <0>         0.4658
@<TRIPOS>BOND
     1    1    6 ar
     2    1    2 ar
     3    1   31 1
     4    2    3 ar
     5    2   32 1
     6    3    4 ar
     7    3   33 1
     8    4    5 ar
     9    4    7 1
    10    5    6 ar
    11    5   34 1
    12    6   35 1
    13    7    8 1
    14    7   13 1
    15    7    9 1
    16    9   10 1
    17    9   36 1
    18    9   37 1
    19   10   11 1
    20   10   12 1
    21   10   20 1
    22   12   13 1
    23   12   14 1
    24   13   38 1
    25   14   19 ar
    26   14   15 ar
    27   15   16 ar
    28   15   39 1
    29   16   17 ar
    30   16   40 1
    31   17   18 ar
    32   17   41 1
    33   18   19 ar
    34   18   42 1
    35   19   43 1
    36   20   21 2
    37   20   22 am
    38   22   23 1
    39   22   44 1
    40   23   24 1
    41   23   45 1
    42   23   46 1
    43   24   47 1
    44   24   48 1
    45   24   25 1
    46   25   27 2
    47   25   30 1
    48   26   28 1
    49   27   28 1
    50   27   49 1
    51   28   29 1
    52   29   50 1
    53   29   30 2
    54   30   51 1
@<TRIPOS>MOLECULE
ZINC03840654
   75    79     0     0     0
SMALL
USER_CHARGES
2-[hydroxy-dimethyl-(phenylsulfanylmethyl)BLAHyl]-1-(4-methylpiperazin-1-yl)-propan-1-one
@<TRIPOS>ATOM
      1 C1         -4.3944    4.9776    0.1454 C.3       1 <0>        -0.1382
      2 C2         -3.8706    4.1904   -1.0574 C.3       1 <0>        -0.0038
      3 H1         -2.9907    4.6899   -1.4630 H         1 <0>         0.0879
      4 C3         -4.9504    4.1200   -2.1260 C.2       1 <0>         0.0772
      5 C4         -5.1594    2.9630   -2.8091 C.2       1 <0>        -0.1946
      6 S1         -6.4803    3.3972   -3.9087 S.3       1 <0>         0.0691
      7 C5         -6.6541    5.0469   -3.3881 C.2       1 <0>         0.1028
      8 N1         -5.7345    5.1401   -2.4583 N.2       1 <0>        -0.4863
      9 C6         -7.6145    6.0991   -3.8795 C.3       1 <0>        -0.0238
     10 S2         -6.8594    7.0131   -5.2524 S.3       1 <0>        -0.0819
     11 C7         -8.0893    8.1895   -5.7088 C.ar      1 <0>        -0.0888
     12 C8         -9.3028    8.2264   -5.0326 C.ar      1 <0>        -0.1348
     13 C9        -10.2620    9.1535   -5.3893 C.ar      1 <0>        -0.0987
     14 C10       -10.0205   10.0373   -6.4253 C.ar      1 <0>        -0.1202
     15 C11        -8.8163    9.9994   -7.1045 C.ar      1 <0>        -0.0978
     16 C12        -7.8502    9.0789   -6.7496 C.ar      1 <0>        -0.0969
     17 C13        -4.4411    1.6705   -2.6495 C.3       1 <0>        -0.0209
     18 C14        -3.1559    1.9079   -1.8323 C.3       1 <0>        -0.0445
     19 C15        -3.4935    2.7706   -0.6141 C.3       1 <0>        -0.0574
     20 H2         -4.3216    2.3208   -0.0663 H         1 <0>         0.0804
     21 C16        -2.2725    2.8859    0.3045 C.3       1 <0>         0.1148
     22 H3         -1.4627    3.3798   -0.2324 H         1 <0>         0.0673
     23 C17        -1.8043    1.5020    0.7490 C.3       1 <0>        -0.1008
     24 H4         -0.9409    1.5998    1.4070 H         1 <0>         0.0901
     25 C18        -1.4155    0.6917   -0.4913 C.3       1 <0>        -0.1246
     26 C19        -2.6446    0.5352   -1.3844 C.3       1 <0>        -0.1079
     27 C20        -2.9399    0.7930    1.4897 C.3       1 <0>        -0.0979
     28 H5         -3.8371    0.7995    0.8708 H         1 <0>         0.0949
     29 C21        -3.2228    1.5204    2.8056 C.3       1 <0>        -0.1592
     30 C22        -2.5393   -0.6307    1.7787 C.2       1 <0>         0.5294
     31 O1         -1.3695   -0.9125    1.9311 O.2       1 <0>        -0.5054
     32 N2         -3.4809   -1.5909    1.8680 N.am      1 <0>        -0.6359
     33 C23        -4.9109   -1.2549    1.7949 C.3       1 <0>         0.0791
     34 C24        -5.5652   -2.1593    0.7385 C.3       1 <0>        -0.0193
     35 C25        -3.8313   -3.8367    0.9866 C.3       1 <0>        -0.0149
     36 C26        -3.1058   -3.0017    2.0471 C.3       1 <0>         0.0852
     37 C27        -6.0227   -4.4690    0.1738 C.3       1 <0>        -0.0425
     38 O2         -2.6180    3.6600    1.4550 O.3       1 <0>        -0.5494
     39 C28        -2.0976    2.6056   -2.6892 C.3       1 <0>        -0.1510
     40 H6         -3.5671    5.2095    0.8161 H         1 <0>         0.0872
     41 H7         -4.8537    5.9042   -0.1989 H         1 <0>         0.0585
     42 H8         -5.1356    4.3799    0.6759 H         1 <0>         0.0455
     43 H9         -8.5325    5.6216   -4.2222 H         1 <0>         0.1149
     44 H10        -7.8450    6.7884   -3.0672 H         1 <0>         0.1230
     45 H11        -9.4937    7.5339   -4.2262 H         1 <0>         0.1211
     46 H12       -11.2036    9.1858   -4.8614 H         1 <0>         0.1279
     47 H13       -10.7741   10.7586   -6.7048 H         1 <0>         0.1282
     48 H14        -8.6312   10.6909   -7.9133 H         1 <0>         0.1313
     49 H15        -6.9101    9.0498   -7.2805 H         1 <0>         0.1290
     50 H16        -4.1811    1.2741   -3.6311 H         1 <0>         0.0869
     51 H17        -5.0805    0.9601   -2.1255 H         1 <0>         0.0781
     52 H18        -1.0566   -0.2917   -0.1877 H         1 <0>         0.0752
     53 H19        -0.6307    1.2144   -1.0381 H         1 <0>         0.0776
     54 H20        -2.3802   -0.0551   -2.2618 H         1 <0>         0.0705
     55 H21        -3.4300    0.0210   -0.8303 H         1 <0>         0.0520
     56 H22        -3.6668    2.4933    2.5948 H         1 <0>         0.1095
     57 H23        -3.9131    0.9286    3.4068 H         1 <0>         0.0479
     58 H24        -2.2901    1.6576    3.3528 H         1 <0>         0.0639
     59 H25        -5.3769   -1.4243    2.7656 H         1 <0>         0.0996
     60 H26        -5.0273   -0.2100    1.5071 H         1 <0>         0.1322
     61 H27        -5.1674   -1.9184   -0.2473 H         1 <0>         0.1352
     62 H28        -6.6437   -2.0019    0.7443 H         1 <0>         0.1431
     63 H29        -3.4577   -3.5724   -0.0026 H         1 <0>         0.1345
     64 H30        -3.6524   -4.8957    1.1725 H         1 <0>         0.1425
     65 H31        -2.0282   -3.1123    1.9261 H         1 <0>         0.1353
     66 H32        -3.4016   -3.3358    3.0416 H         1 <0>         0.0940
     67 H33        -5.8474   -5.5006    0.4788 H         1 <0>         0.1245
     68 H34        -7.0872   -4.2452    0.2438 H         1 <0>         0.1242
     69 H35        -5.6897   -4.3327   -0.8551 H         1 <0>         0.1236
     70 H36        -1.8923    3.7758    2.0835 H         1 <0>         0.3777
     71 H37        -1.8836    1.9979   -3.5684 H         1 <0>         0.0616
     72 H38        -2.4695    3.5808   -3.0032 H         1 <0>         0.0636
     73 H39        -1.1856    2.7349   -2.1063 H         1 <0>         0.0656
     74 N3         -5.2829   -3.5697    1.0833 N.4       1 <0>        -0.3964
     75 H40        -5.5899   -3.7444    2.0474 H         1 <0>         0.4303
@<TRIPOS>BOND
     1    1    2 1
     2    1   40 1
     3    1   41 1
     4    1   42 1
     5    2    3 1
     6    2   19 1
     7    2    4 1
     8    4    8 1
     9    4    5 2
    10    5    6 1
    11    5   17 1
    12    6    7 1
    13    7    8 2
    14    7    9 1
    15    9   10 1
    16    9   43 1
    17    9   44 1
    18   10   11 1
    19   11   16 ar
    20   11   12 ar
    21   12   13 ar
    22   12   45 1
    23   13   14 ar
    24   13   46 1
    25   14   15 ar
    26   14   47 1
    27   15   16 ar
    28   15   48 1
    29   16   49 1
    30   17   18 1
    31   17   50 1
    32   17   51 1
    33   18   26 1
    34   18   19 1
    35   18   39 1
    36   19   20 1
    37   19   21 1
    38   21   22 1
    39   21   23 1
    40   21   38 1
    41   23   24 1
    42   23   25 1
    43   23   27 1
    44   25   26 1
    45   25   52 1
    46   25   53 1
    47   26   54 1
    48   26   55 1
    49   27   28 1
    50   27   29 1
    51   27   30 1
    52   29   56 1
    53   29   57 1
    54   29   58 1
    55   30   31 2
    56   30   32 am
    57   32   36 1
    58   32   33 1
    59   33   34 1
    60   33   59 1
    61   33   60 1
    62   34   61 1
    63   34   62 1
    64   34   74 1
    65   35   36 1
    66   35   63 1
    67   35   64 1
    68   35   74 1
    69   36   65 1
    70   36   66 1
    71   37   67 1
    72   37   68 1
    73   37   69 1
    74   37   74 1
    75   38   70 1
    76   39   71 1
    77   39   72 1
    78   39   73 1
    79   74   75 1
@<TRIPOS>MOLECULE
ZINC12779426
   74    76     0     0     0
SMALL
USER_CHARGES
(2S)-2-[3-[2-(diisopropylamino)ethyl]-4-oxo-quinazolin-2-yl]sulfanyl-N-(2,4,6-trimethylphenyl)propanamide
@<TRIPOS>ATOM
      1 C1          2.1235   13.9784    4.8553 C.3       1 <0>        -0.1192
      2 C2          2.1203   12.5436    5.3161 C.ar      1 <0>        -0.0700
      3 C3          2.1691   11.5205    4.3870 C.ar      1 <0>        -0.1184
      4 C4          2.1664   10.2045    4.8060 C.ar      1 <0>        -0.0600
      5 C5          2.1145    9.9092    6.1620 C.ar      1 <0>         0.1151
      6 C6          2.0598   10.9388    7.0923 C.ar      1 <0>        -0.0789
      7 C7          2.0691   12.2528    6.6670 C.ar      1 <0>        -0.1173
      8 C8          1.9972   10.6228    8.5644 C.3       1 <0>        -0.1168
      9 N1          2.1116    8.5769    6.5898 N.am      1 <0>        -0.6596
     10 C9          1.1524    7.7333    6.1602 C.2       1 <0>         0.5340
     11 O1          0.3188    8.1163    5.3668 O.2       1 <0>        -0.5071
     12 C10         1.1155    6.3141    6.6657 C.3       1 <0>        -0.0999
     13 H1          1.3533    6.3009    7.7294 H         1 <0>         0.1342
     14 C11         2.1421    5.4742    5.9031 C.3       1 <0>        -0.1494
     15 S1         -0.5383    5.6249    6.4087 S.3       1 <0>         0.0482
     16 C12        -0.3463    4.0641    7.2036 C.2       1 <0>         0.3416
     17 N2          0.8127    3.7762    7.7426 N.2       1 <0>        -0.5021
     18 C13         1.0295    2.6007    8.3660 C.ar      1 <0>         0.1550
     19 C14         2.2664    2.2932    8.9409 C.ar      1 <0>        -0.1041
     20 C15         2.4425    1.0894    9.5627 C.ar      1 <0>        -0.0629
     21 C16         1.4094    0.1636    9.6336 C.ar      1 <0>        -0.1254
     22 C17         0.1882    0.4354    9.0813 C.ar      1 <0>        -0.0399
     23 C18        -0.0191    1.6557    8.4399 C.ar      1 <0>        -0.1961
     24 C19        -1.3109    2.0040    7.8328 C.2       1 <0>         0.5588
     25 O2         -2.2533    1.2342    7.8680 O.2       1 <0>        -0.5000
     26 N3         -1.4123    3.2108    7.2287 N.am      1 <0>        -0.5267
     27 C20        -2.6762    3.6070    6.6025 C.3       1 <0>         0.0672
     28 C21        -2.6806    3.1642    5.1380 C.3       1 <0>        -0.0293
     29 C22        -3.8976    3.3684    3.0548 C.3       1 <0>         0.0251
     30 C23        -3.2516    4.5911    2.4001 C.3       1 <0>        -0.1848
     31 C24        -3.0709    2.1216    2.7340 C.3       1 <0>        -0.1984
     32 C25        -5.0787    2.8319    5.0993 C.3       1 <0>         0.0194
     33 C26        -6.3915    3.4718    4.6434 C.3       1 <0>        -0.1816
     34 C27        -5.0373    1.3722    4.6428 C.3       1 <0>        -0.1828
     35 C28         2.2191    9.0902    3.7928 C.3       1 <0>        -0.1077
     36 H2          1.0975   14.3132    4.7026 H         1 <0>         0.0738
     37 H3          2.6003   14.6018    5.6117 H         1 <0>         0.0698
     38 H4          2.6749   14.0580    3.9185 H         1 <0>         0.0694
     39 H5          2.2098   11.7508    3.3327 H         1 <0>         0.1270
     40 H6          2.0314   13.0541    7.3902 H         1 <0>         0.1286
     41 H7          3.0032   10.6427    8.9834 H         1 <0>         0.0752
     42 H8          1.3786   11.3648    9.0693 H         1 <0>         0.0732
     43 H9          1.5644    9.6324    8.7053 H         1 <0>         0.0620
     44 H10         2.8000    8.2605    7.1956 H         1 <0>         0.4120
     45 H11         3.1381    5.8892    6.0579 H         1 <0>         0.0791
     46 H12         2.1155    4.4477    6.2688 H         1 <0>         0.0965
     47 H13         1.9043    5.4873    4.8395 H         1 <0>         0.0704
     48 H14         3.0786    3.0035    8.8934 H         1 <0>         0.1438
     49 H15         3.3989    0.8544   10.0059 H         1 <0>         0.1414
     50 H16         1.5723   -0.7813   10.1307 H         1 <0>         0.1400
     51 H17        -0.6095   -0.2902    9.1411 H         1 <0>         0.1411
     52 H18        -2.7836    4.6904    6.6549 H         1 <0>         0.1168
     53 H19        -3.5058    3.1338    7.1277 H         1 <0>         0.1259
     54 H20        -2.5731    2.0808    5.0857 H         1 <0>         0.1426
     55 H21        -1.8509    3.6374    4.6129 H         1 <0>         0.1389
     56 H22        -4.9096    3.2423    2.6699 H         1 <0>         0.1412
     57 H23        -3.2942    4.4877    1.3159 H         1 <0>         0.1071
     58 H24        -3.7889    5.4905    2.7007 H         1 <0>         0.0823
     59 H25        -2.2115    4.6660    2.7174 H         1 <0>         0.0821
     60 H26        -3.4480    1.2772    3.3109 H         1 <0>         0.0928
     61 H27        -3.1482    1.8982    1.6699 H         1 <0>         0.1047
     62 H28        -2.0273    2.3012    2.9926 H         1 <0>         0.0800
     63 H29        -5.0119    2.8747    6.1864 H         1 <0>         0.1358
     64 H30        -6.5149    3.3232    3.5707 H         1 <0>         0.0825
     65 H31        -7.2244    3.0087    5.1725 H         1 <0>         0.1076
     66 H32        -6.3706    4.5394    4.8622 H         1 <0>         0.0815
     67 H33        -4.0828    0.9294    4.9275 H         1 <0>         0.0816
     68 H34        -5.8494    0.8203    5.1161 H         1 <0>         0.1054
     69 H35        -5.1501    1.3269    3.5596 H         1 <0>         0.0878
     70 H36         1.2153    8.8938    3.4161 H         1 <0>         0.0807
     71 H37         2.8670    9.3812    2.9660 H         1 <0>         0.0652
     72 H38         2.6131    8.1895    4.2635 H         1 <0>         0.0551
     73 N4         -3.9518    3.5895    4.5152 N.4       1 <0>        -0.3881
     74 H39        -4.0934    4.5902    4.6961 H         1 <0>         0.4269
@<TRIPOS>BOND
     1    1    2 1
     2    1   36 1
     3    1   37 1
     4    1   38 1
     5    2    7 ar
     6    2    3 ar
     7    3    4 ar
     8    3   39 1
     9    4    5 ar
    10    4   35 1
    11    5    6 ar
    12    5    9 1
    13    6    7 ar
    14    6    8 1
    15    7   40 1
    16    8   41 1
    17    8   42 1
    18    8   43 1
    19    9   10 am
    20    9   44 1
    21   10   11 2
    22   10   12 1
    23   12   13 1
    24   12   14 1
    25   12   15 1
    26   14   45 1
    27   14   46 1
    28   14   47 1
    29   15   16 1
    30   16   26 1
    31   16   17 2
    32   17   18 1
    33   18   23 ar
    34   18   19 ar
    35   19   20 ar
    36   19   48 1
    37   20   21 ar
    38   20   49 1
    39   21   22 ar
    40   21   50 1
    41   22   23 ar
    42   22   51 1
    43   23   24 1
    44   24   25 2
    45   24   26 am
    46   26   27 1
    47   27   28 1
    48   27   52 1
    49   27   53 1
    50   28   54 1
    51   28   55 1
    52   28   73 1
    53   29   30 1
    54   29   31 1
    55   29   56 1
    56   29   73 1
    57   30   57 1
    58   30   58 1
    59   30   59 1
    60   31   60 1
    61   31   61 1
    62   31   62 1
    63   32   33 1
    64   32   34 1
    65   32   63 1
    66   32   73 1
    67   33   64 1
    68   33   65 1
    69   33   66 1
    70   34   67 1
    71   34   68 1
    72   34   69 1
    73   35   70 1
    74   35   71 1
    75   35   72 1
    76   73   74 1
@<TRIPOS>MOLECULE
ZINC22515882
   56    59     0     0     0
SMALL
USER_CHARGES
N-(2-chlorophenyl)-2-[4-[[2-[4-(trifluoromethyl)phenyl]thiazol-4-yl]methyl]piperazin-1-yl]acetamide
@<TRIPOS>ATOM
      1 C1         -3.5967   -0.7930   -0.7952 C.ar      1 <0>        -0.0920
      2 C2         -4.7658   -0.2522   -0.2917 C.ar      1 <0>        -0.1089
      3 C3         -4.7515    0.9904    0.3143 C.ar      1 <0>        -0.0861
      4 C4         -3.5676    1.6962    0.4186 C.ar      1 <0>        -0.0600
      5 C5         -2.3915    1.1549   -0.0860 C.ar      1 <0>         0.1408
      6 C6         -2.4112   -0.0910   -0.6985 C.ar      1 <0>        -0.1167
      7 N1         -1.1906    1.8666    0.0178 N.am      1 <0>        -0.6556
      8 C7         -0.0142    1.2090    0.0051 C.2       1 <0>         0.5048
      9 O1          0.0026   -0.0038    0.0049 O.2       1 <0>        -0.5142
     10 C8          1.2801    1.9805   -0.0151 C.3       1 <0>        -0.0264
     11 N2          2.4097    1.0414   -0.0327 N.4       1 <0>        -0.3889
     12 C9          2.4803    0.2791    1.2216 C.3       1 <0>        -0.0058
     13 C10         3.6181   -0.7408    1.1322 C.3       1 <0>         0.0243
     14 N3          4.8829   -0.0384    0.8742 N.3       1 <0>        -0.5326
     15 C11         4.8122    0.7240   -0.3801 C.3       1 <0>         0.0278
     16 C12         3.6745    1.7438   -0.2907 C.3       1 <0>         0.0018
     17 C13         6.0124   -0.9775    0.8566 C.3       1 <0>         0.1260
     18 C14         6.2036   -1.5592    2.2336 C.2       1 <0>         0.0605
     19 C15         5.6328   -2.7506    2.5547 C.2       1 <0>        -0.2049
     20 S1          6.1813   -2.9336    4.2472 S.3       1 <0>         0.0515
     21 C16         7.1007   -1.4032    4.3446 C.2       1 <0>         0.1534
     22 N4          6.9168   -0.9140    3.1264 N.2       1 <0>        -0.4773
     23 C17         7.8613   -0.8359    5.4788 C.ar      1 <0>         0.0079
     24 C18         8.5197    0.3865    5.3394 C.ar      1 <0>        -0.0697
     25 C19         9.2240    0.9125    6.4028 C.ar      1 <0>        -0.0689
     26 C20         9.2864    0.2259    7.6023 C.ar      1 <0>        -0.1599
     27 C21         8.6403   -0.9890    7.7454 C.ar      1 <0>        -0.0649
     28 C22         7.9285   -1.5236    6.6912 C.ar      1 <0>        -0.0921
     29 C23        10.0620    0.8038    8.7580 C.3       1 <0>         0.5066
     30 F1         11.3865    0.3570    8.7006 F         1 <0>        -0.1714
     31 F2         10.0374    2.2006    8.6841 F         1 <0>        -0.1736
     32 F3          9.4821    0.3902    9.9621 F         1 <0>        -0.1731
     33 Cl1        -3.5502    3.2569    1.1786 Cl        1 <0>        -0.0556
     34 H1         -3.6117   -1.7636   -1.2686 H         1 <0>         0.1384
     35 H2         -5.6921   -0.8017   -0.3724 H         1 <0>         0.1411
     36 H3         -5.6662    1.4101    0.7062 H         1 <0>         0.1447
     37 H4         -1.4997   -0.5123   -1.0961 H         1 <0>         0.1511
     38 H5         -1.2070    2.9626    0.1097 H         1 <0>         0.4476
     39 H6          1.3156    2.6136   -0.9139 H         1 <0>         0.1665
     40 H7          1.3436    2.6137    0.8821 H         1 <0>         0.1616
     41 H8          2.6684    0.9673    2.0588 H         1 <0>         0.1319
     42 H9          1.5278   -0.2461    1.3856 H         1 <0>         0.1488
     43 H10         3.6910   -1.2929    2.0808 H         1 <0>         0.1213
     44 H11         3.4151   -1.4457    0.3125 H         1 <0>         0.0650
     45 H12         5.7647    1.2493   -0.5441 H         1 <0>         0.1288
     46 H13         4.6241    0.0358   -1.2174 H         1 <0>         0.0641
     47 H14         3.6004    2.2960   -1.2392 H         1 <0>         0.1400
     48 H15         3.8763    2.4488    0.5292 H         1 <0>         0.1390
     49 H16         5.8046   -1.7875    0.1420 H         1 <0>         0.0662
     50 H17         6.9264   -0.4461    0.5529 H         1 <0>         0.1069
     51 H18         5.0190   -3.4055    1.9540 H         1 <0>         0.1994
     52 H19         8.4751    0.9214    4.4022 H         1 <0>         0.1481
     53 H20         9.7309    1.8603    6.2974 H         1 <0>         0.1475
     54 H21         8.6928   -1.5200    8.6843 H         1 <0>         0.1488
     55 H22         7.4249   -2.4722    6.8040 H         1 <0>         0.1401
     56 H23         2.2430    0.3291   -0.8542 H         1 <0>         0.4464
@<TRIPOS>BOND
     1    1    6 ar
     2    1    2 ar
     3    1   34 1
     4    2    3 ar
     5    2   35 1
     6    3    4 ar
     7    3   36 1
     8    4    5 ar
     9    4   33 1
    10    5    6 ar
    11    5    7 1
    12    6   37 1
    13    7    8 am
    14    7   38 1
    15    8    9 2
    16    8   10 1
    17   10   11 1
    18   10   39 1
    19   10   40 1
    20   11   16 1
    21   11   12 1
    22   11   56 1
    23   12   13 1
    24   12   41 1
    25   12   42 1
    26   13   14 1
    27   13   43 1
    28   13   44 1
    29   14   15 1
    30   14   17 1
    31   15   16 1
    32   15   45 1
    33   15   46 1
    34   16   47 1
    35   16   48 1
    36   17   18 1
    37   17   49 1
    38   17   50 1
    39   18   22 1
    40   18   19 2
    41   19   20 1
    42   19   51 1
    43   20   21 1
    44   21   22 2
    45   21   23 1
    46   23   28 ar
    47   23   24 ar
    48   24   25 ar
    49   24   52 1
    50   25   26 ar
    51   25   53 1
    52   26   27 ar
    53   26   29 1
    54   27   28 ar
    55   27   54 1
    56   28   55 1
    57   29   30 1
    58   29   31 1
    59   29   32 1
@<TRIPOS>MOLECULE
ZINC35674904
   70    73     0     0     0
SMALL
USER_CHARGES

@<TRIPOS>ATOM
      1 C1          2.5073    1.4775   -0.8191 C.3       1 <0>        -0.1575
      2 C2          2.1892    0.0136   -0.5081 C.3       1 <0>        -0.1468
      3 C3          0.7141   -0.2622   -0.8063 C.3       1 <0>         0.1261
      4 H1          0.5004   -0.0116   -1.8453 H         1 <0>         0.1416
      5 C4          0.4136   -1.7431   -0.5667 C.3       1 <0>         0.0446
      6 H2         -0.6569   -1.9152   -0.6787 H         1 <0>         0.1514
      7 C5          1.1585   -2.5713   -1.5805 C.ar      1 <0>        -0.1191
      8 C6          1.2107   -2.1212   -2.8920 C.ar      1 <0>        -0.1603
      9 C7          1.8820   -2.8514   -3.8561 C.ar      1 <0>         0.1238
     10 C8          2.5075   -4.0450   -3.5073 C.ar      1 <0>         0.1351
     11 C9          2.4533   -4.4897   -2.1982 C.ar      1 <0>        -0.1644
     12 C10         1.7803   -3.7527   -1.2355 C.ar      1 <0>        -0.0762
     13 C11         1.7535   -4.2702    0.1803 C.3       1 <0>        -0.1002
     14 C12         0.6580   -3.5556    0.9724 C.3       1 <0>        -0.0146
     15 N1          0.8214   -2.1050    0.7938 N.4       1 <0>        -0.3706
     16 C13        -0.0199   -1.3931    1.7650 C.3       1 <0>         0.0007
     17 C14         0.3466   -1.8275    3.1607 C.ar      1 <0>        -0.1572
     18 C15        -0.3588   -2.8452    3.7756 C.ar      1 <0>        -0.0928
     19 C16        -0.0226   -3.2436    5.0556 C.ar      1 <0>        -0.1162
     20 C17         1.0194   -2.6247    5.7211 C.ar      1 <0>        -0.0787
     21 C18         1.7252   -1.6079    5.1060 C.ar      1 <0>        -0.1111
     22 C19         1.3916   -1.2123    3.8239 C.ar      1 <0>        -0.0578
     23 C20         2.1646   -0.1072    3.1513 C.3       1 <0>        -0.1403
     24 O1          3.1684   -4.7707   -4.4486 O.3       1 <0>        -0.2945
     25 C21         3.7858   -5.9848   -4.0164 C.3       1 <0>         0.0206
     26 O2          1.9303   -2.4052   -5.1399 O.3       1 <0>        -0.2941
     27 C22         1.3618   -1.1206   -5.4020 C.3       1 <0>         0.0180
     28 N2         -0.1234    0.5549    0.0754 N.pl3     1 <0>        -1.1254
     29 S1         -1.7207    0.7957   -0.2893 S.o2      1 <0>         2.6761
     30 O3         -2.2727    1.5490    0.7818 O.2       1 <0>        -0.9289
     31 O4         -1.7667    1.2421   -1.6376 O.2       1 <0>        -0.9297
     32 C23        -2.5066   -0.7809   -0.2537 C.ar      1 <0>        -0.6996
     33 C24        -2.5800   -1.5428   -1.4048 C.ar      1 <0>        -0.0326
     34 C25        -3.1966   -2.7797   -1.3768 C.ar      1 <0>        -0.1277
     35 C26        -3.7394   -3.2549   -0.1977 C.ar      1 <0>        -0.0531
     36 C27        -3.6653   -2.4934    0.9536 C.ar      1 <0>        -0.1320
     37 C28        -3.0449   -1.2583    0.9267 C.ar      1 <0>        -0.0352
     38 H3          2.3863    1.6566   -1.8875 H         1 <0>         0.0709
     39 H4          1.8274    2.1231   -0.2632 H         1 <0>         0.0657
     40 H5          3.5349    1.6958   -0.5282 H         1 <0>         0.0738
     41 H6          2.8119   -0.6328   -1.1265 H         1 <0>         0.1028
     42 H7          2.3907   -0.1863    0.5443 H         1 <0>         0.0696
     43 H8          0.7246   -1.1952   -3.1616 H         1 <0>         0.1471
     44 H9          2.9372   -5.4157   -1.9249 H         1 <0>         0.1487
     45 H10         1.5535   -5.3417    0.1708 H         1 <0>         0.1249
     46 H11         2.7193   -4.0871    0.6514 H         1 <0>         0.1042
     47 H12        -0.3203   -3.8620    0.6021 H         1 <0>         0.1311
     48 H13         0.7474   -3.8068    2.0292 H         1 <0>         0.1435
     49 H14         0.1390   -0.3193    1.6652 H         1 <0>         0.1501
     50 H15        -1.0682   -1.6244    1.5760 H         1 <0>         0.1356
     51 H16        -1.1727   -3.3287    3.2558 H         1 <0>         0.1312
     52 H17        -0.5741   -4.0382    5.5362 H         1 <0>         0.1368
     53 H18         1.2816   -2.9355    6.7216 H         1 <0>         0.1370
     54 H19         2.5389   -1.1242    5.6259 H         1 <0>         0.1371
     55 H20         1.7566    0.8574    3.4534 H         1 <0>         0.0936
     56 H21         3.2127   -0.1663    3.4446 H         1 <0>         0.0897
     57 H22         2.0834   -0.2133    2.0695 H         1 <0>         0.0512
     58 H23         4.2770   -6.4641   -4.8632 H         1 <0>         0.1112
     59 H24         4.5243   -5.7626   -3.2461 H         1 <0>         0.0607
     60 H25         3.0271   -6.6537   -3.6102 H         1 <0>         0.0607
     61 H26         1.4078   -0.9143   -6.4713 H         1 <0>         0.1121
     62 H27         0.3223   -1.1096   -5.0743 H         1 <0>         0.0599
     63 H28         1.9216   -0.3582   -4.8604 H         1 <0>         0.0613
     64 H29         0.2577    0.9548    0.8727 H         1 <0>         0.4264
     65 H30        -2.1558   -1.1715   -2.3260 H         1 <0>         0.1461
     66 H31        -3.2545   -3.3746   -2.2763 H         1 <0>         0.1429
     67 H32        -4.2218   -4.2209   -0.1760 H         1 <0>         0.1414
     68 H33        -4.0897   -2.8645    1.8748 H         1 <0>         0.1431
     69 H34        -2.9837   -0.6650    1.8270 H         1 <0>         0.1480
     70 H35         1.7885   -1.8537    0.9345 H         1 <0>         0.4203
@<TRIPOS>BOND
     1    1    2 1
     2    1   38 1
     3    1   39 1
     4    1   40 1
     5    2    3 1
     6    2   41 1
     7    2   42 1
     8    3    4 1
     9    3    5 1
    10    3   28 1
    11    5    6 1
    12    5   15 1
    13    5    7 1
    14    7   12 ar
    15    7    8 ar
    16    8    9 ar
    17    8   43 1
    18    9   10 ar
    19    9   26 1
    20   10   11 ar
    21   10   24 1
    22   11   12 ar
    23   11   44 1
    24   12   13 1
    25   13   14 1
    26   13   45 1
    27   13   46 1
    28   14   15 1
    29   14   47 1
    30   14   48 1
    31   15   16 1
    32   15   70 1
    33   16   17 1
    34   16   49 1
    35   16   50 1
    36   17   22 ar
    37   17   18 ar
    38   18   19 ar
    39   18   51 1
    40   19   20 ar
    41   19   52 1
    42   20   21 ar
    43   20   53 1
    44   21   22 ar
    45   21   54 1
    46   22   23 1
    47   23   55 1
    48   23   56 1
    49   23   57 1
    50   24   25 1
    51   25   58 1
    52   25   59 1
    53   25   60 1
    54   26   27 1
    55   27   61 1
    56   27   62 1
    57   27   63 1
    58   28   29 1
    59   28   64 1
    60   29   30 2
    61   29   31 2
    62   29   32 1
    63   32   37 ar
    64   32   33 ar
    65   33   34 ar
    66   33   65 1
    67   34   35 ar
    68   34   66 1
    69   35   36 ar
    70   35   67 1
    71   36   37 ar
    72   36   68 1
    73   37   69 1
@<TRIPOS>MOLECULE
ZINC56902846
   52    54     0     0     0
SMALL
USER_CHARGES

@<TRIPOS>ATOM
      1 C1          0.0144    1.4388   -0.0008 C.3       1 <0>        -0.0473
      2 N1          0.0233   -0.0301   -0.0047 N.4       1 <0>        -0.3822
      3 C2          0.7297   -0.5187    1.1871 C.3       1 <0>        -0.0609
      4 C3         -1.3586   -0.5283    0.0066 C.3       1 <0>        -0.0365
      5 C4         -1.3522   -2.0528   -0.1231 C.3       1 <0>         0.0812
      6 N2         -2.7304   -2.5496   -0.1119 N.am      1 <0>        -0.5048
      7 C5         -3.4285   -2.6830   -1.3013 C.2       1 <0>         0.3372
      8 N3         -3.0282   -2.4244   -2.5237 N.2       1 <0>        -0.5322
      9 C6         -3.8239   -2.6038   -3.6020 C.ar      1 <0>         0.0745
     10 C7         -3.5170   -2.3647   -4.9615 C.ar      1 <0>        -0.0181
     11 C8         -4.4445   -2.5997   -5.9420 C.ar      1 <0>        -0.1725
     12 C9         -5.7154   -3.0795   -5.6392 C.ar      1 <0>         0.1360
     13 C10        -6.0487   -3.3245   -4.3154 C.ar      1 <0>        -0.0657
     14 C11        -5.1224   -3.0904   -3.3298 C.ar      1 <0>        -0.1491
     15 S1         -5.1004   -3.2586   -1.5611 S.3       1 <0>         0.1623
     16 O1         -6.6197   -3.3049   -6.6294 O.3       1 <0>        -0.3021
     17 C12        -6.1999   -3.0274   -7.9669 C.3       1 <0>         0.6058
     18 F1         -5.0917   -3.8211   -8.2820 F         1 <0>        -0.1612
     19 F2         -7.2447   -3.3127   -8.8523 F         1 <0>        -0.1223
     20 F3         -5.8521   -1.6767   -8.0757 F         1 <0>        -0.1619
     21 C13        -3.3192   -2.8768    1.0555 C.2       1 <0>         0.7073
     22 O2         -4.4629   -3.2891    1.0648 O.2       1 <0>        -0.5036
     23 N4         -2.6402   -2.7470    2.2124 N.am      1 <0>        -0.6694
     24 C14        -3.2812   -2.9945    3.4315 C.ar      1 <0>         0.1719
     25 C15        -2.9599   -2.2402    4.5523 C.ar      1 <0>        -0.1395
     26 C16        -3.5944   -2.4870    5.7540 C.ar      1 <0>        -0.0477
     27 C17        -4.5486   -3.4839    5.8418 C.ar      1 <0>        -0.1830
     28 C18        -4.8707   -4.2368    4.7276 C.ar      1 <0>        -0.0445
     29 C19        -4.2440   -3.9912    3.5216 C.ar      1 <0>        -0.1150
     30 C20        -5.2385   -3.7508    7.1548 C.3       1 <0>         0.5074
     31 F4         -6.3909   -2.9627    7.2447 F         1 <0>        -0.1727
     32 F5         -5.5910   -5.1026    7.2300 F         1 <0>        -0.1730
     33 F6         -4.3741   -3.4350    8.2085 F         1 <0>        -0.1747
     34 H1          1.0397    1.8084   -0.0091 H         1 <0>         0.1306
     35 H2         -0.5098    1.8013   -0.8851 H         1 <0>         0.1263
     36 H3         -0.4935    1.7967    0.8948 H         1 <0>         0.1240
     37 H4          1.7551   -0.1490    1.1787 H         1 <0>         0.1343
     38 H5          0.2218   -0.1608    2.0827 H         1 <0>         0.1263
     39 H6          0.7364   -1.6086    1.1842 H         1 <0>         0.1226
     40 H7         -1.8392   -0.2453    0.9432 H         1 <0>         0.1354
     41 H8         -1.9079   -0.0948   -0.8291 H         1 <0>         0.1455
     42 H9         -0.8717   -2.3357   -1.0596 H         1 <0>         0.1314
     43 H10        -0.8029   -2.4863    0.7126 H         1 <0>         0.1090
     44 H11        -2.5396   -1.9919   -5.2301 H         1 <0>         0.1448
     45 H12        -4.1839   -2.4082   -6.9724 H         1 <0>         0.1477
     46 H13        -7.0301   -3.6973   -4.0618 H         1 <0>         0.1548
     47 H14        -1.7072   -2.4820    2.2001 H         1 <0>         0.4060
     48 H15        -2.2145   -1.4616    4.4844 H         1 <0>         0.1370
     49 H16        -3.3447   -1.9009    6.6261 H         1 <0>         0.1466
     50 H17        -5.6162   -5.0150    4.7995 H         1 <0>         0.1472
     51 H18        -4.4995   -4.5763    2.6505 H         1 <0>         0.1544
     52 H19         0.4935   -0.3614   -0.8337 H         1 <0>         0.4325
@<TRIPOS>BOND
     1    1    2 1
     2    1   34 1
     3    1   35 1
     4    1   36 1
     5    2    3 1
     6    2    4 1
     7    2   52 1
     8    3   37 1
     9    3   38 1
    10    3   39 1
    11    4    5 1
    12    4   40 1
    13    4   41 1
    14    5    6 1
    15    5   42 1
    16    5   43 1
    17    6    7 1
    18    6   21 am
    19    7   15 1
    20    7    8 2
    21    8    9 1
    22    9   14 ar
    23    9   10 ar
    24   10   11 ar
    25   10   44 1
    26   11   12 ar
    27   11   45 1
    28   12   13 ar
    29   12   16 1
    30   13   14 ar
    31   13   46 1
    32   14   15 1
    33   16   17 1
    34   17   18 1
    35   17   19 1
    36   17   20 1
    37   21   22 2
    38   21   23 am
    39   23   24 1
    40   23   47 1
    41   24   29 ar
    42   24   25 ar
    43   25   26 ar
    44   25   48 1
    45   26   27 ar
    46   26   49 1
    47   27   28 ar
    48   27   30 1
    49   28   29 ar
    50   28   50 1
    51   29   51 1
    52   30   31 1
    53   30   32 1
    54   30   33 1
@<TRIPOS>MOLECULE
ZINC02177950
   75    78     0     0     0
SMALL
USER_CHARGES
2-[2-bromo-4-[(3,5-dimethyl-1-adamantyl)aminomethyl]-6-ethoxy-phenoxy]-N-tert-butyl-acetamide
@<TRIPOS>ATOM
      1 C1          2.5183    5.1678    2.2628 C.3       1 <0>        -0.1575
      2 C2          2.1934    3.9171    3.0819 C.3       1 <0>         0.0512
      3 O1          1.2097    3.1404    2.3956 O.3       1 <0>        -0.2907
      4 C3          0.8066    1.9871    2.9929 C.ar      1 <0>         0.1350
      5 C4          1.3467    1.6114    4.2127 C.ar      1 <0>        -0.1676
      6 C5          0.9368    0.4384    4.8185 C.ar      1 <0>        -0.1200
      7 C6         -0.0121   -0.3624    4.2105 C.ar      1 <0>        -0.0930
      8 C7         -0.5595    0.0094    2.9959 C.ar      1 <0>        -0.0777
      9 C8         -0.1484    1.1818    2.3806 C.ar      1 <0>         0.1222
     10 O2         -0.6816    1.5467    1.1837 O.3       1 <0>        -0.2854
     11 C9         -0.0127    1.0858    0.0080 C.3       1 <0>         0.0468
     12 C10        -0.7416    1.5850   -1.2129 C.2       1 <0>         0.5197
     13 O3         -1.7359    2.2682   -1.0884 O.2       1 <0>        -0.5032
     14 N1         -0.2884    1.2723   -2.4431 N.am      1 <0>        -0.7204
     15 C11        -0.9970    1.7576   -3.6299 C.3       1 <0>         0.1713
     16 C12        -1.0178    3.2875   -3.6215 C.3       1 <0>        -0.1660
     17 C13        -0.2809    1.2642   -4.8887 C.3       1 <0>        -0.1574
     18 C14        -2.4324    1.2280   -3.6191 C.3       1 <0>        -0.1664
     19 Br1        -1.8624   -1.0850    2.1710 Br        1 <0>         0.0056
     20 C15         1.5262    0.0313    6.1444 C.3       1 <0>         0.0442
     21 C16         1.2597    0.2126    8.5441 C.3       1 <0>         0.0637
     22 C17         2.6878    0.7458    8.6743 C.3       1 <0>        -0.1260
     23 C18         3.2564    0.3530   10.0394 C.3       1 <0>        -0.0795
     24 C19         3.2675   -1.1716   10.1677 C.3       1 <0>        -0.1136
     25 C20         1.8393   -1.7048   10.0374 C.3       1 <0>        -0.0472
     26 C21         1.2708   -1.3120    8.6724 C.3       1 <0>        -0.1223
     27 C22         0.9686   -1.1062   11.1440 C.3       1 <0>        -0.1082
     28 C23         0.9575    0.4184   11.0157 C.3       1 <0>        -0.0464
     29 C24         2.3856    0.9515   11.1459 C.3       1 <0>        -0.1138
     30 C25         0.3889    0.8112    9.6506 C.3       1 <0>        -0.1227
     31 C26         0.0867    1.0169   12.1222 C.3       1 <0>        -0.1482
     32 C27         1.8504   -3.2294   10.1657 C.3       1 <0>        -0.1479
     33 H1          2.9042    4.8729    1.2870 H         1 <0>         0.0710
     34 H2          1.6135    5.7613    2.1314 H         1 <0>         0.0727
     35 H3          3.2687    5.7603    2.7863 H         1 <0>         0.0860
     36 H4          1.8075    4.2121    4.0577 H         1 <0>         0.0654
     37 H5          3.0981    3.3236    3.2133 H         1 <0>         0.0669
     38 H6          2.0881    2.2350    4.6899 H         1 <0>         0.1476
     39 H7         -0.3297   -1.2781    4.6870 H         1 <0>         0.1487
     40 H8          0.0021   -0.0041    0.0020 H         1 <0>         0.0871
     41 H9          1.0099    1.4631    0.0003 H         1 <0>         0.0886
     42 H10         0.5068    0.7259   -2.5426 H         1 <0>         0.3999
     43 H11         0.0048    3.6647   -3.6293 H         1 <0>         0.0548
     44 H12        -1.5449    3.6485   -4.5046 H         1 <0>         0.0674
     45 H13        -1.5279    3.6390   -2.7247 H         1 <0>         0.0778
     46 H14        -0.2661    0.1743   -4.8947 H         1 <0>         0.0635
     47 H15        -0.8081    1.6253   -5.7718 H         1 <0>         0.0782
     48 H16         0.7417    1.6415   -4.8965 H         1 <0>         0.0633
     49 H17        -2.9426    1.5796   -2.7223 H         1 <0>         0.0779
     50 H18        -2.9596    1.5891   -4.5021 H         1 <0>         0.0675
     51 H19        -2.4176    0.1382   -3.6251 H         1 <0>         0.0551
     52 H20         1.5359   -1.0561    6.2191 H         1 <0>         0.1438
     53 H21         2.5455    0.4099    6.2205 H         1 <0>         0.1419
     54 H22         3.3082    0.3193    7.8860 H         1 <0>         0.0865
     55 H23         2.6799    1.8319    8.5829 H         1 <0>         0.0863
     56 H24         4.2738    0.7328   10.1321 H         1 <0>         0.0929
     57 H25         3.6725   -1.4514   11.1402 H         1 <0>         0.0800
     58 H26         3.8878   -1.5981    9.3794 H         1 <0>         0.0708
     59 H27         0.2533   -1.6919    8.5796 H         1 <0>         0.0878
     60 H28         1.8911   -1.7384    7.8841 H         1 <0>         0.0873
     61 H29         1.3736   -1.3861   12.1165 H         1 <0>         0.0798
     62 H30        -0.0489   -1.4861   11.0512 H         1 <0>         0.0716
     63 H31         2.3777    2.0377   11.0545 H         1 <0>         0.0711
     64 H32         2.7907    0.6717   12.1184 H         1 <0>         0.0799
     65 H33         0.3810    1.8973    9.5592 H         1 <0>         0.0871
     66 H34        -0.6285    0.4313    9.5579 H         1 <0>         0.0878
     67 H35        -0.9307    0.6371   12.0294 H         1 <0>         0.0615
     68 H36         0.4918    0.7371   13.0947 H         1 <0>         0.0678
     69 H37         0.0788    2.1031   12.0308 H         1 <0>         0.0613
     70 H38         0.8330   -3.6092   10.0730 H         1 <0>         0.0614
     71 H39         2.4708   -3.6558    9.3774 H         1 <0>         0.0610
     72 H40         2.2555   -3.5092   11.1382 H         1 <0>         0.0678
     73 N2          0.7051    0.5957    7.2321 N.4       1 <0>        -0.5144
     74 H41        -0.2543    0.2385    7.1525 H         1 <0>         0.4311
     75 H42         0.6966    1.6195    7.1538 H         1 <0>         0.4295
@<TRIPOS>BOND
     1    1    2 1
     2    1   33 1
     3    1   34 1
     4    1   35 1
     5    2    3 1
     6    2   36 1
     7    2   37 1
     8    3    4 1
     9    4    9 ar
    10    4    5 ar
    11    5    6 ar
    12    5   38 1
    13    6    7 ar
    14    6   20 1
    15    7    8 ar
    16    7   39 1
    17    8    9 ar
    18    8   19 1
    19    9   10 1
    20   10   11 1
    21   11   12 1
    22   11   40 1
    23   11   41 1
    24   12   13 2
    25   12   14 am
    26   14   15 1
    27   14   42 1
    28   15   16 1
    29   15   17 1
    30   15   18 1
    31   16   43 1
    32   16   44 1
    33   16   45 1
    34   17   46 1
    35   17   47 1
    36   17   48 1
    37   18   49 1
    38   18   50 1
    39   18   51 1
    40   20   52 1
    41   20   53 1
    42   20   73 1
    43   21   26 1
    44   21   30 1
    45   21   22 1
    46   21   73 1
    47   22   23 1
    48   22   54 1
    49   22   55 1
    50   23   29 1
    51   23   24 1
    52   23   56 1
    53   24   25 1
    54   24   57 1
    55   24   58 1
    56   25   26 1
    57   25   27 1
    58   25   32 1
    59   26   59 1
    60   26   60 1
    61   27   28 1
    62   27   61 1
    63   27   62 1
    64   28   29 1
    65   28   30 1
    66   28   31 1
    67   29   63 1
    68   29   64 1
    69   30   65 1
    70   30   66 1
    71   31   67 1
    72   31   68 1
    73   31   69 1
    74   32   70 1
    75   32   71 1
    76   32   72 1
    77   73   74 1
    78   73   75 1
@<TRIPOS>MOLECULE
ZINC32051717
   79    82     0     0     0
SMALL
USER_CHARGES
tert-butyl N-[6-[(N'E)-N'-(9,9-dimethyl-1,2,3,4,10,11-hexahydrochromeno[7,6-c]isochromen-5-ylidene)hydrazino]-6-oxo-hexyl]carbamate
@<TRIPOS>ATOM
      1 C1         -4.9299   -1.1278   13.8395 C.3       1 <0>        -0.1463
      2 C2         -3.8946   -1.4581   12.7624 C.3       1 <0>         0.1102
      3 C3         -2.6226   -2.0086   13.4198 C.3       1 <0>        -0.1545
      4 C4         -1.6555   -2.4349   12.3128 C.3       1 <0>        -0.0870
      5 C5         -1.5401   -1.3351   11.2873 C.ar      1 <0>        -0.1544
      6 C6         -0.4639   -1.3524   10.4206 C.ar      1 <0>        -0.0085
      7 C7         -0.3302   -0.3546    9.4558 C.ar      1 <0>        -0.1894
      8 C8         -1.2908    0.6668    9.3683 C.ar      1 <0>         0.1491
      9 C9         -2.3601    0.6758   10.2422 C.ar      1 <0>        -0.1498
     10 C10        -2.4873   -0.3238   11.2029 C.ar      1 <0>         0.2160
     11 O1         -3.5529   -0.2722   12.0440 O.3       1 <0>        -0.2899
     12 O2         -1.1529    1.6334    8.4244 O.3       1 <0>        -0.2181
     13 C11        -0.4697    1.2886    7.2968 C.2       1 <0>         0.4931
     14 N1         -0.8735    1.6843    6.1168 N.pl3     1 <0>        -0.3661
     15 N2         -0.3928    1.0511    4.9632 N.am      1 <0>        -0.5386
     16 C12        -0.7070    1.5383    3.7464 C.2       1 <0>         0.5211
     17 O3         -1.4064    2.5256    3.6501 O.2       1 <0>        -0.4992
     18 C13        -0.1900    0.8571    2.5056 C.3       1 <0>        -0.1277
     19 C14        -0.6891    1.6051    1.2677 C.3       1 <0>        -0.1091
     20 C15        -0.1642    0.9136    0.0079 C.3       1 <0>        -0.1176
     21 C16        -0.6632    1.6615   -1.2300 C.3       1 <0>        -0.1330
     22 C17        -0.1383    0.9700   -2.4899 C.3       1 <0>         0.1393
     23 N3         -0.6162    1.6862   -3.6752 N.am      1 <0>        -0.7277
     24 C18        -0.2766    1.2543   -4.9059 C.2       1 <0>         0.6499
     25 O4          0.4258    0.2709   -5.0324 O.2       1 <0>        -0.5703
     26 O5         -0.7158    1.9125   -5.9952 O.3       1 <0>        -0.3655
     27 C19        -0.3109    1.3910   -7.2884 C.3       1 <0>         0.1382
     28 C20        -0.8200   -0.0437   -7.4418 C.3       1 <0>        -0.1862
     29 C21        -0.9017    2.2632   -8.3978 C.3       1 <0>        -0.1448
     30 C22         1.2158    1.4037   -7.3880 C.3       1 <0>        -0.1862
     31 C23         0.7337    0.4516    7.4457 C.2       1 <0>        -0.2374
     32 C24         0.8088   -0.3551    8.5194 C.2       1 <0>         0.1281
     33 C25         1.9893   -1.2404    8.7985 C.3       1 <0>        -0.1109
     34 C26         2.8231   -1.4342    7.5366 C.3       1 <0>        -0.1288
     35 C27         3.1191   -0.0519    6.9423 C.3       1 <0>        -0.1253
     36 C28         1.8124    0.5320    6.4048 C.3       1 <0>        -0.0650
     37 C29        -4.4676   -2.4981   11.7975 C.3       1 <0>        -0.1821
     38 H1         -5.1905   -2.0434   14.3906 H         1 <0>         0.0889
     39 H2         -5.8329   -0.7153   13.3658 H         1 <0>         0.0741
     40 H3         -4.5105   -0.3872   14.5364 H         1 <0>         0.0727
     41 H4         -2.1631   -1.2261   14.0415 H         1 <0>         0.0852
     42 H5         -2.8799   -2.8731   14.0494 H         1 <0>         0.0998
     43 H6         -0.6648   -2.6333   12.7478 H         1 <0>         0.0968
     44 H7         -2.0325   -3.3475   11.8279 H         1 <0>         0.0947
     45 H8          0.2732   -2.1387   10.4903 H         1 <0>         0.1555
     46 H9         -3.0994    1.4606   10.1805 H         1 <0>         0.1621
     47 H10         0.2410    0.1563    5.0505 H         1 <0>         0.4694
     48 H11         0.9099    0.8599    2.5171 H         1 <0>         0.1158
     49 H12        -0.5537   -0.1807    2.4784 H         1 <0>         0.1155
     50 H13        -1.7890    1.6023    1.2563 H         1 <0>         0.0786
     51 H14        -0.3254    2.6429    1.2949 H         1 <0>         0.0786
     52 H15         0.9357    0.9164    0.0194 H         1 <0>         0.0727
     53 H16        -0.5279   -0.1242   -0.0193 H         1 <0>         0.0726
     54 H17        -1.7631    1.6587   -1.2415 H         1 <0>         0.0750
     55 H18        -0.2995    2.6993   -1.2028 H         1 <0>         0.0751
     56 H19         0.9616    0.9729   -2.4785 H         1 <0>         0.0688
     57 H20        -0.5020   -0.0678   -2.5171 H         1 <0>         0.0688
     58 H21        -1.2522    2.5764   -3.5607 H         1 <0>         0.4288
     59 H22        -0.5133   -0.4388   -8.4215 H         1 <0>         0.0731
     60 H23        -1.9176   -0.0529   -7.3700 H         1 <0>         0.0599
     61 H24        -0.3951   -0.6708   -6.6442 H         1 <0>         0.0870
     62 H25        -0.5949    1.8680   -9.3775 H         1 <0>         0.0836
     63 H26        -0.5356    3.2946   -8.2875 H         1 <0>         0.0677
     64 H27        -1.9993    2.2540   -8.3261 H         1 <0>         0.0677
     65 H28         1.5226    1.0086   -8.3677 H         1 <0>         0.0731
     66 H29         1.6405    0.7765   -6.5903 H         1 <0>         0.0870
     67 H30         1.5819    2.4351   -7.2776 H         1 <0>         0.0599
     68 H31         2.6181   -0.7793    9.5744 H         1 <0>         0.1181
     69 H32         1.6369   -2.2222    9.1477 H         1 <0>         0.1080
     70 H33         3.7629   -1.9450    7.7930 H         1 <0>         0.0934
     71 H34         2.2596   -2.0437    6.8148 H         1 <0>         0.0770
     72 H35         3.5304    0.6031    7.7245 H         1 <0>         0.0821
     73 H36         3.8501   -0.1524    6.1265 H         1 <0>         0.0930
     74 H37         1.5061   -0.0370    5.5146 H         1 <0>         0.0789
     75 H38         1.9778    1.5838    6.1286 H         1 <0>         0.0928
     76 H39        -3.7203   -2.7326   11.0251 H         1 <0>         0.0637
     77 H40        -5.3738   -2.0961   11.3209 H         1 <0>         0.0732
     78 H41        -4.7206   -3.4133   12.3528 H         1 <0>         0.0852
     79 H42        -1.5904    2.5141    6.0305 H         1 <0>         0.5003
@<TRIPOS>BOND
     1    1    2 1
     2    1   38 1
     3    1   39 1
     4    1   40 1
     5    2   11 1
     6    2    3 1
     7    2   37 1
     8    3    4 1
     9    3   41 1
    10    3   42 1
    11    4    5 1
    12    4   43 1
    13    4   44 1
    14    5   10 ar
    15    5    6 ar
    16    6    7 ar
    17    6   45 1
    18    7   32 1
    19    7    8 ar
    20    8    9 ar
    21    8   12 1
    22    9   10 ar
    23    9   46 1
    24   10   11 1
    25   12   13 1
    26   13   14 2
    27   13   31 1
    28   14   15 1
    29   14   79 1
    30   15   16 am
    31   15   47 1
    32   16   17 2
    33   16   18 1
    34   18   19 1
    35   18   48 1
    36   18   49 1
    37   19   20 1
    38   19   50 1
    39   19   51 1
    40   20   21 1
    41   20   52 1
    42   20   53 1
    43   21   22 1
    44   21   54 1
    45   21   55 1
    46   22   23 1
    47   22   56 1
    48   22   57 1
    49   23   24 am
    50   23   58 1
    51   24   25 2
    52   24   26 1
    53   26   27 1
    54   27   28 1
    55   27   29 1
    56   27   30 1
    57   28   59 1
    58   28   60 1
    59   28   61 1
    60   29   62 1
    61   29   63 1
    62   29   64 1
    63   30   65 1
    64   30   66 1
    65   30   67 1
    66   31   36 1
    67   31   32 2
    68   32   33 1
    69   33   34 1
    70   33   68 1
    71   33   69 1
    72   34   35 1
    73   34   70 1
    74   34   71 1
    75   35   36 1
    76   35   72 1
    77   35   73 1
    78   36   74 1
    79   36   75 1
    80   37   76 1
    81   37   77 1
    82   37   78 1
@<TRIPOS>MOLECULE
ZINC38796727
   61    66     0     0     0
SMALL
USER_CHARGES

@<TRIPOS>ATOM
      1 C1         -0.0131    1.3830    0.0653 C.ar      1 <0>        -0.1317
      2 C2          0.1545    0.2318    0.8130 C.ar      1 <0>        -0.0811
      3 C3          1.3580   -0.4447    0.7815 C.ar      1 <0>        -0.1593
      4 C4          2.4009    0.0324   -0.0025 C.ar      1 <0>         0.1520
      5 C5          2.2291    1.1892   -0.7523 C.ar      1 <0>        -0.1416
      6 C6          1.0230    1.8608   -0.7161 C.ar      1 <0>        -0.0856
      7 N1          3.6203   -0.6494   -0.0363 N.pl3     1 <0>        -0.6156
      8 C7          3.6442   -2.0327    0.0608 C.2       1 <0>         0.3053
      9 N2          4.6885   -2.8279    0.1580 N.2       1 <0>        -0.5723
     10 C8          4.5423   -4.1379    0.2439 C.2       1 <0>         0.1050
     11 C9          3.2758   -4.6190    0.2271 C.2       1 <0>        -0.2534
     12 S1          2.3447   -3.1017    0.0902 S.3       1 <0>         0.1427
     13 C10         5.7316   -5.0568    0.3551 C.3       1 <0>         0.0021
     14 S2          6.1410   -5.3068    2.1046 S.3       1 <0>        -0.2292
     15 C11         7.5729   -6.4199    2.0654 C.3       1 <0>         0.3907
     16 H1          7.9020   -6.6519    3.0783 H         1 <0>         0.1413
     17 N3          7.2451   -7.6552    1.3347 N.pl3     1 <0>        -0.5793
     18 N4          8.1130   -7.7106    0.2379 N.2       1 <0>        -0.1679
     19 C12         8.9137   -6.6781    0.2136 C.2       1 <0>         0.2535
     20 N5          8.6716   -5.8184    1.2920 N.pl3     1 <0>        -0.6260
     21 C13         9.3715   -4.5670    1.5926 C.3       1 <0>         0.1381
     22 C14        10.5735   -4.8585    2.4932 C.3       1 <0>         0.0568
     23 H2         11.2560   -5.5505    2.0000 H         1 <0>         0.0662
     24 C15        11.3083   -3.5424    2.8521 C.3       1 <0>        -0.1531
     25 C16        11.9970   -3.9434    4.1851 C.3       1 <0>        -0.1552
     26 C17        10.9661   -4.9082    4.8093 C.3       1 <0>         0.0482
     27 O1         10.1355   -5.4005    3.7493 O.3       1 <0>        -0.3715
     28 C18         9.8935   -6.4597   -0.7670 C.2       1 <0>         0.1366
     29 C19        10.1835   -7.2703   -1.8650 C.ar      1 <0>        -0.1456
     30 C20         9.6332   -8.4859   -2.3240 C.ar      1 <0>        -0.0076
     31 C21        10.1236   -9.0643   -3.4506 C.ar      1 <0>        -0.1522
     32 C22        11.1673   -8.4849   -4.1753 C.ar      1 <0>         0.0474
     33 C23        11.7428   -7.3186   -3.7923 C.ar      1 <0>        -0.2058
     34 C24        11.2838   -6.6553   -2.6251 C.ar      1 <0>         0.3141
     35 N6         11.6684   -5.5315   -2.0522 N.pl3     1 <0>        -0.6023
     36 C25        10.8517   -5.2926   -0.8583 C.3       1 <0>         0.0753
     37 H3         -0.9568    1.9077    0.0883 H         1 <0>         0.1308
     38 H4         -0.6565   -0.1384    1.4226 H         1 <0>         0.1330
     39 H5          1.4884   -1.3435    1.3660 H         1 <0>         0.1290
     40 H6          3.0380    1.5630   -1.3626 H         1 <0>         0.1296
     41 H7          0.8886    2.7600   -1.2991 H         1 <0>         0.1331
     42 H8          4.4500   -0.1552   -0.1277 H         1 <0>         0.4235
     43 H9          2.9257   -5.6390    0.2845 H         1 <0>         0.1958
     44 H10         5.4932   -6.0167   -0.1030 H         1 <0>         0.0952
     45 H11         6.5841   -4.6113   -0.1575 H         1 <0>         0.0898
     46 H12         6.5622   -8.3035    1.5678 H         1 <0>         0.4671
     47 H13         9.7153   -4.1109    0.6642 H         1 <0>         0.0917
     48 H14         8.6921   -3.8843    2.1030 H         1 <0>         0.1166
     49 H15        12.0451   -3.2839    2.0915 H         1 <0>         0.0863
     50 H16        10.6015   -2.7269    3.0049 H         1 <0>         0.0899
     51 H17        12.9412   -4.4541    3.9956 H         1 <0>         0.0791
     52 H18        12.1473   -3.0714    4.8217 H         1 <0>         0.0905
     53 H19        11.4815   -5.7397    5.2899 H         1 <0>         0.0734
     54 H20        10.3575   -4.3764    5.5407 H         1 <0>         0.0773
     55 H21         8.8256   -8.9546   -1.7814 H         1 <0>         0.1608
     56 H22         9.6964   -9.9948   -3.7941 H         1 <0>         0.1553
     57 H23        11.5262   -8.9799   -5.0655 H         1 <0>         0.1600
     58 H24        12.5487   -6.8958   -4.3738 H         1 <0>         0.1599
     59 H25        10.2979   -4.3594   -0.9604 H         1 <0>         0.1717
     60 H26        11.4865   -5.2581    0.0271 H         1 <0>         0.1673
     61 H27        12.3772   -4.9520   -2.3727 H         1 <0>         0.4542
@<TRIPOS>BOND
     1    1    6 ar
     2    1    2 ar
     3    1   37 1
     4    2    3 ar
     5    2   38 1
     6    3    4 ar
     7    3   39 1
     8    4    5 ar
     9    4    7 1
    10    5    6 ar
    11    5   40 1
    12    6   41 1
    13    7    8 1
    14    7   42 1
    15    8   12 1
    16    8    9 2
    17    9   10 1
    18   10   11 2
    19   10   13 1
    20   11   12 1
    21   11   43 1
    22   13   14 1
    23   13   44 1
    24   13   45 1
    25   14   15 1
    26   15   16 1
    27   15   20 1
    28   15   17 1
    29   17   18 1
    30   17   46 1
    31   18   19 2
    32   19   20 1
    33   19   28 1
    34   20   21 1
    35   21   22 1
    36   21   47 1
    37   21   48 1
    38   22   23 1
    39   22   27 1
    40   22   24 1
    41   24   25 1
    42   24   49 1
    43   24   50 1
    44   25   26 1
    45   25   51 1
    46   25   52 1
    47   26   27 1
    48   26   53 1
    49   26   54 1
    50   28   36 1
    51   28   29 2
    52   29   34 ar
    53   29   30 ar
    54   30   31 ar
    55   30   55 1
    56   31   32 ar
    57   31   56 1
    58   32   33 ar
    59   32   57 1
    60   33   34 ar
    61   33   58 1
    62   34   35 2
    63   35   36 1
    64   35   61 1
    65   36   59 1
    66   36   60 1
@<TRIPOS>MOLECULE
ZINC22788749
   64    68     0     0     0
SMALL
USER_CHARGES

@<TRIPOS>ATOM
      1 C1          0.1013    1.1233    1.6468 C.ar      1 <0>        -0.1340
      2 C2          1.1232    1.7024    0.9166 C.ar      1 <0>        -0.0630
      3 C3          2.3416    1.0624    0.8035 C.ar      1 <0>        -0.1411
      4 C4          2.5404   -0.1640    1.4245 C.ar      1 <0>         0.1947
      5 C5          1.5127   -0.7425    2.1572 C.ar      1 <0>        -0.2189
      6 C6          0.2961   -0.0974    2.2661 C.ar      1 <0>        -0.0484
      7 C7          1.7241   -2.0730    2.8326 C.3       1 <0>         0.5079
      8 F1          0.5548   -2.4463    3.5038 F         1 <0>        -0.1675
      9 F2          2.0385   -3.0393    1.8710 F         1 <0>        -0.1788
     10 F3          2.7753   -1.9686    3.7498 F         1 <0>        -0.1775
     11 N1          3.7737   -0.8153    1.3114 N.am      1 <0>        -0.6695
     12 C8          4.8744   -0.1187    0.9653 C.2       1 <0>         0.5203
     13 O1          4.8165    1.0869    0.8459 O.2       1 <0>        -0.4957
     14 C9          6.1771   -0.8379    0.7267 C.3       1 <0>         0.0346
     15 N2          7.2152    0.1365    0.3651 N.3       1 <0>        -0.5198
     16 C10         7.5161    1.0288    1.4936 C.3       1 <0>         0.0190
     17 C11         8.5560    2.0637    1.0585 C.3       1 <0>        -0.0004
     18 N3          9.7765    1.3758    0.6169 N.4       1 <0>        -0.3859
     19 C12         9.4649    0.5073   -0.5260 C.3       1 <0>         0.0032
     20 C13         8.4325   -0.5404   -0.1040 C.3       1 <0>         0.0282
     21 C14        10.7809    2.3702    0.2164 C.3       1 <0>         0.0514
     22 C15        12.0696    1.6705   -0.1312 C.ar      1 <0>        -0.1535
     23 C16        12.3625    1.3679   -1.4472 C.ar      1 <0>         0.1379
     24 C17        13.5524    0.7218   -1.7680 C.ar      1 <0>        -0.1257
     25 C18        14.4510    0.3764   -0.7820 C.ar      1 <0>        -0.0458
     26 C19        14.1748    0.6721    0.5462 C.ar      1 <0>         0.0448
     27 C20        12.9752    1.3301    0.8728 C.ar      1 <0>        -0.0784
     28 C21        13.0068    1.4883    2.3253 C.2       1 <0>        -0.2155
     29 C22        14.1634    0.9505    2.7478 C.2       1 <0>         0.0851
     30 O2         14.8459    0.4627    1.6993 O.3       1 <0>        -0.1784
     31 C23        14.5851    0.9118    4.1991 C.3       1 <0>        -0.0547
     32 C24        13.7336    1.9181    4.9810 C.3       1 <0>        -0.1194
     33 C25        12.2527    1.6911    4.6644 C.3       1 <0>        -0.1264
     34 C26        11.9725    2.1200    3.2185 C.3       1 <0>        -0.0432
     35 O3         11.4856    1.7021   -2.4312 O.3       1 <0>        -0.4952
     36 H1         -0.8493    1.6277    1.7372 H         1 <0>         0.1402
     37 H2          0.9679    2.6561    0.4340 H         1 <0>         0.1391
     38 H3          3.1389    1.5149    0.2326 H         1 <0>         0.1646
     39 H4         -0.5037   -0.5469    2.8360 H         1 <0>         0.1456
     40 H5          3.8364   -1.7680    1.4822 H         1 <0>         0.4140
     41 H6          6.4730   -1.3642    1.6341 H         1 <0>         0.0830
     42 H7          6.0530   -1.5547   -0.0850 H         1 <0>         0.1259
     43 H8          6.6050    1.5384    1.8072 H         1 <0>         0.1401
     44 H9          7.9106    0.4439    2.3245 H         1 <0>         0.0577
     45 H10         8.1560    2.6573    0.2365 H         1 <0>         0.1428
     46 H11         8.7912    2.7176    1.8982 H         1 <0>         0.1350
     47 H12         9.0601    1.1090   -1.3398 H         1 <0>         0.1436
     48 H13        10.3738    0.0075   -0.8609 H         1 <0>         0.1346
     49 H14         8.8421   -1.1512    0.7006 H         1 <0>         0.0609
     50 H15         8.1900   -1.1757   -0.9560 H         1 <0>         0.1266
     51 H16        10.4206    2.9209   -0.6525 H         1 <0>         0.1399
     52 H17        10.9544    3.0633    1.0396 H         1 <0>         0.1348
     53 H18        13.7735    0.4885   -2.7991 H         1 <0>         0.1558
     54 H19        15.3712   -0.1253   -1.0427 H         1 <0>         0.1501
     55 H20        14.4280   -0.0897    4.5995 H         1 <0>         0.1017
     56 H21        15.6381    1.1811    4.2817 H         1 <0>         0.0999
     57 H22        13.9014    1.7828    6.0495 H         1 <0>         0.0901
     58 H23        14.0150    2.9315    4.6949 H         1 <0>         0.0755
     59 H24        12.0129    0.6345    4.7833 H         1 <0>         0.0713
     60 H25        11.6402    2.2828    5.3447 H         1 <0>         0.0813
     61 H26        12.0343    3.2054    3.1401 H         1 <0>         0.0840
     62 H27        10.9786    1.7843    2.9226 H         1 <0>         0.0505
     63 H28        11.6320    2.5811   -2.8067 H         1 <0>         0.4059
     64 H29        10.1402    0.8172    1.3743 H         1 <0>         0.4151
@<TRIPOS>BOND
     1    1    6 ar
     2    1    2 ar
     3    1   36 1
     4    2    3 ar
     5    2   37 1
     6    3    4 ar
     7    3   38 1
     8    4    5 ar
     9    4   11 1
    10    5    6 ar
    11    5    7 1
    12    6   39 1
    13    7    8 1
    14    7    9 1
    15    7   10 1
    16   11   12 am
    17   11   40 1
    18   12   13 2
    19   12   14 1
    20   14   15 1
    21   14   41 1
    22   14   42 1
    23   15   20 1
    24   15   16 1
    25   16   17 1
    26   16   43 1
    27   16   44 1
    28   17   18 1
    29   17   45 1
    30   17   46 1
    31   18   19 1
    32   18   21 1
    33   18   64 1
    34   19   20 1
    35   19   47 1
    36   19   48 1
    37   20   49 1
    38   20   50 1
    39   21   22 1
    40   21   51 1
    41   21   52 1
    42   22   27 ar
    43   22   23 ar
    44   23   24 ar
    45   23   35 1
    46   24   25 ar
    47   24   53 1
    48   25   26 ar
    49   25   54 1
    50   26   30 1
    51   26   27 ar
    52   27   28 1
    53   28   34 1
    54   28   29 2
    55   29   30 1
    56   29   31 1
    57   31   32 1
    58   31   55 1
    59   31   56 1
    60   32   33 1
    61   32   57 1
    62   32   58 1
    63   33   34 1
    64   33   59 1
    65   33   60 1
    66   34   61 1
    67   34   62 1
    68   35   63 1
@<TRIPOS>MOLECULE
ZINC63161113
   67    71     0     0     0
SMALL
USER_CHARGES

@<TRIPOS>ATOM
      1 C1          0.1876    1.4042   -0.6382 C.ar      1 <0>        -0.1023
      2 C2          1.3819    2.0977   -0.5784 C.ar      1 <0>        -0.1200
      3 C3          2.5776    1.4090   -0.4955 C.ar      1 <0>        -0.0914
      4 C4          2.5790    0.0268   -0.4718 C.ar      1 <0>        -0.1072
      5 C5          1.3846   -0.6666   -0.5307 C.ar      1 <0>        -0.0947
      6 C6          0.1890    0.0220   -0.6151 C.ar      1 <0>        -0.1232
      7 C7          3.8825   -0.7240   -0.3824 C.3       1 <0>         0.1288
      8 O1          4.2155   -0.9384    0.9906 O.3       1 <0>        -0.3520
      9 C8          5.3598   -1.6004    1.2459 C.2       1 <0>         0.6523
     10 O2          6.0566   -1.9856    0.3280 O.2       1 <0>        -0.5567
     11 N1          5.7323   -1.8359    2.5196 N.am      1 <0>        -0.7009
     12 C9          6.9774   -2.5562    2.7974 C.3       1 <0>         0.1523
     13 H1          7.7005   -2.3494    2.0085 H         1 <0>         0.1521
     14 C10         6.6961   -4.0592    2.8503 C.3       1 <0>        -0.1038
     15 C11         5.6505   -4.3380    3.8991 C.2       1 <0>         0.0562
     16 C12         4.3165   -4.4521    3.7073 C.ar      1 <0>        -0.1577
     17 C13         3.4719   -4.3535    2.5109 C.ar      1 <0>        -0.0098
     18 C14         2.1353   -4.5175    2.6361 C.ar      1 <0>        -0.1476
     19 C15         1.5378   -4.7781    3.8770 C.ar      1 <0>         0.0563
     20 C16         2.2475   -4.8828    5.0204 C.ar      1 <0>        -0.2090
     21 C17         3.6612   -4.7286    5.0056 C.ar      1 <0>         0.3293
     22 N2          4.5553   -4.7832    5.9628 N.pl3     1 <0>        -0.5798
     23 C18         5.8811   -4.5533    5.3782 C.3       1 <0>         0.0579
     24 C19         7.5353   -2.1027    4.1218 C.2       1 <0>         0.4869
     25 O3          6.9506   -1.2606    4.7698 O.2       1 <0>        -0.4549
     26 N3          8.6842   -2.6328    4.5861 N.am      1 <0>        -0.6525
     27 C20         9.2542   -2.1420    5.7625 C.ar      1 <0>         0.2741
     28 C21        10.4937   -2.6171    6.1755 C.ar      1 <0>        -0.1367
     29 C22        11.0500   -2.1248    7.3421 C.ar      1 <0>        -0.1315
     30 C23        10.3404   -1.1650    8.0623 C.ar      1 <0>         0.1630
     31 C24         9.1085   -0.7384    7.5884 C.ar      1 <0>         0.0512
     32 N4          8.6110   -1.2264    6.4682 N.ar      1 <0>        -0.4312
     33 N5         10.8641   -0.6389    9.2485 N.pl3     1 <0>        -0.6230
     34 C25        12.2248   -0.9802    9.6928 C.3       1 <0>         0.0844
     35 C26        12.9685    0.3207   10.0158 C.3       1 <0>         0.0446
     36 O4         12.1823    1.1004   10.9200 O.3       1 <0>        -0.3749
     37 C27        10.9193    1.5123   10.3919 C.3       1 <0>         0.0442
     38 C28        10.0726    0.2769   10.0854 C.3       1 <0>         0.0842
     39 H2         -0.7469    1.9423   -0.6985 H         1 <0>         0.1278
     40 H3          1.3809    3.1775   -0.5969 H         1 <0>         0.1288
     41 H4          3.5108    1.9507   -0.4495 H         1 <0>         0.1255
     42 H5          1.3856   -1.7465   -0.5126 H         1 <0>         0.1225
     43 H6         -0.7442   -0.5197   -0.6615 H         1 <0>         0.1274
     44 H7          3.7835   -1.6853   -0.8866 H         1 <0>         0.0816
     45 H8          4.6705   -0.1422   -0.8608 H         1 <0>         0.0827
     46 H9          5.1760   -1.5284    3.2523 H         1 <0>         0.4171
     47 H10         6.3347   -4.3956    1.8785 H         1 <0>         0.1322
     48 H11         7.6134   -4.5919    3.1010 H         1 <0>         0.1286
     49 H12         3.9113   -4.1527    1.5449 H         1 <0>         0.1543
     50 H13         1.5120   -4.4453    1.7571 H         1 <0>         0.1573
     51 H14         0.4655   -4.8998    3.9200 H         1 <0>         0.1614
     52 H15         1.7389   -5.0845    5.9516 H         1 <0>         0.1610
     53 H16         6.5196   -5.4224    5.5363 H         1 <0>         0.1745
     54 H17         6.3359   -3.6669    5.8205 H         1 <0>         0.1693
     55 H18         9.1150   -3.3552    4.1030 H         1 <0>         0.4189
     56 H19        11.0156   -3.3617    5.5927 H         1 <0>         0.1401
     57 H20        12.0112   -2.4759    7.6872 H         1 <0>         0.1426
     58 H21         8.5524    0.0049    8.1403 H         1 <0>         0.1589
     59 H22        12.1739   -1.6051   10.5845 H         1 <0>         0.0772
     60 H23        12.7470   -1.5143    8.8990 H         1 <0>         0.0922
     61 H24        13.9283    0.0867   10.4765 H         1 <0>         0.1098
     62 H25        13.1326    0.8840    9.0971 H         1 <0>         0.0574
     63 H26        10.4047    2.1356   11.1233 H         1 <0>         0.1101
     64 H27        11.0758    2.0800    9.4747 H         1 <0>         0.0575
     65 H28         9.1703    0.5749    9.5514 H         1 <0>         0.0928
     66 H29         9.8013   -0.2192   11.0172 H         1 <0>         0.0776
     67 H30         4.3714   -4.9515    6.9003 H         1 <0>         0.4559
@<TRIPOS>BOND
     1    1    6 ar
     2    1    2 ar
     3    1   39 1
     4    2    3 ar
     5    2   40 1
     6    3    4 ar
     7    3   41 1
     8    4    5 ar
     9    4    7 1
    10    5    6 ar
    11    5   42 1
    12    6   43 1
    13    7    8 1
    14    7   44 1
    15    7   45 1
    16    8    9 1
    17    9   10 2
    18    9   11 am
    19   11   12 1
    20   11   46 1
    21   12   13 1
    22   12   14 1
    23   12   24 1
    24   14   15 1
    25   14   47 1
    26   14   48 1
    27   15   23 1
    28   15   16 2
    29   16   21 ar
    30   16   17 ar
    31   17   18 ar
    32   17   49 1
    33   18   19 ar
    34   18   50 1
    35   19   20 ar
    36   19   51 1
    37   20   21 ar
    38   20   52 1
    39   21   22 2
    40   22   23 1
    41   22   67 1
    42   23   53 1
    43   23   54 1
    44   24   25 2
    45   24   26 am
    46   26   27 1
    47   26   55 1
    48   27   32 ar
    49   27   28 ar
    50   28   29 ar
    51   28   56 1
    52   29   30 ar
    53   29   57 1
    54   30   31 ar
    55   30   33 1
    56   31   32 ar
    57   31   58 1
    58   33   38 1
    59   33   34 1
    60   34   35 1
    61   34   59 1
    62   34   60 1
    63   35   36 1
    64   35   61 1
    65   35   62 1
    66   36   37 1
    67   37   38 1
    68   37   63 1
    69   37   64 1
    70   38   65 1
    71   38   66 1
@<TRIPOS>MOLECULE
ZINC01256346
   54    57     0     0     0
SMALL
USER_CHARGES

@<TRIPOS>ATOM
      1 C1          0.0445    1.9307    0.8318 C.ar      1 <0>        -0.1022
      2 C2          1.2642    2.5813    0.8306 C.ar      1 <0>        -0.1128
      3 C3          2.4321    1.8601    0.6676 C.ar      1 <0>        -0.1075
      4 C4          2.3804    0.4882    0.5062 C.ar      1 <0>        -0.1133
      5 C5          1.1608   -0.1626    0.5083 C.ar      1 <0>        -0.1098
      6 C6         -0.0072    0.5588    0.6699 C.ar      1 <0>        -0.1137
      7 C7          3.6537   -0.2980    0.3276 C.3       1 <0>        -0.0759
      8 C8          4.1791   -0.7357    1.6962 C.3       1 <0>        -0.1249
      9 C9          5.4523   -1.5219    1.5175 C.cat     1 <0>         0.5784
     10 N1          6.6517   -0.8754    1.5215 N.pl3     1 <0>        -0.6389
     11 C10         7.8347   -1.5941    2.0221 C.3       1 <0>         0.1384
     12 C11         7.7489   -3.0172    1.5306 C.2       1 <0>        -0.3254
     13 C12         8.8997   -3.7950    1.3627 C.2       1 <0>         0.5713
     14 N2          8.7789   -5.0663    0.9278 N.am      1 <0>        -0.6398
     15 C13         7.5696   -5.5918    0.6645 C.2       1 <0>         0.7100
     16 O1          7.4922   -6.7438    0.2833 O.2       1 <0>        -0.4766
     17 N3          6.4426   -4.8709    0.8140 N.am      1 <0>        -0.5131
     18 C14         6.5112   -3.5613    1.2424 C.2       1 <0>         0.4586
     19 N4          5.3972   -2.8184    1.3655 N.pl3     1 <0>        -0.5473
     20 C15         5.1417   -5.4776    0.5210 C.3       1 <0>         0.1331
     21 C16         4.5954   -6.1220    1.7690 C.ar      1 <0>        -0.1489
     22 C17         4.8936   -7.4416    2.0528 C.ar      1 <0>        -0.0776
     23 C18         4.3925   -8.0327    3.1975 C.ar      1 <0>        -0.1080
     24 C19         3.5937   -7.3040    4.0587 C.ar      1 <0>        -0.0895
     25 C20         3.2963   -5.9841    3.7754 C.ar      1 <0>        -0.1111
     26 C21         3.8008   -5.3917    2.6329 C.ar      1 <0>        -0.1151
     27 O2          9.9997   -3.3289    1.6065 O.2       1 <0>        -0.4534
     28 C22         9.1071   -0.9358    1.4850 C.3       1 <0>         0.4757
     29 F1          9.0241    0.4500    1.6584 F         1 <0>        -0.1534
     30 F2         10.2163   -1.4273    2.1817 F         1 <0>        -0.1071
     31 F3          9.2444   -1.2280    0.1238 F         1 <0>        -0.1450
     32 C23         7.8451   -1.5735    3.5519 C.3       1 <0>         0.4548
     33 F4          6.6882   -2.1948    4.0345 F         1 <0>        -0.1633
     34 F5          8.9718   -2.2582    4.0199 F         1 <0>        -0.1244
     35 F6          7.8847   -0.2489    4.0003 F         1 <0>        -0.1446
     36 H1         -0.8677    2.4937    0.9636 H         1 <0>         0.1299
     37 H2          1.3045    3.6532    0.9566 H         1 <0>         0.1303
     38 H3          3.3850    2.3685    0.6659 H         1 <0>         0.1261
     39 H4          1.1204   -1.2344    0.3819 H         1 <0>         0.1239
     40 H5         -0.9601    0.0505    0.6712 H         1 <0>         0.1296
     41 H6          3.4544   -1.1783   -0.2836 H         1 <0>         0.0937
     42 H7          4.3995    0.3254   -0.1656 H         1 <0>         0.0974
     43 H8          4.3784    0.1446    2.3074 H         1 <0>         0.1570
     44 H9          3.4333   -1.3591    2.1893 H         1 <0>         0.1513
     45 H10         4.5316   -3.2552    1.3370 H         1 <0>         0.4596
     46 H11         4.4508   -4.7077    0.1774 H         1 <0>         0.1049
     47 H12         5.2597   -6.2329   -0.2560 H         1 <0>         0.1469
     48 H13         5.5177   -8.0110    1.3799 H         1 <0>         0.1388
     49 H14         4.6249   -9.0639    3.4189 H         1 <0>         0.1368
     50 H15         3.2016   -7.7660    4.9528 H         1 <0>         0.1358
     51 H16         2.6719   -5.4148    4.4481 H         1 <0>         0.1340
     52 H17         3.5716   -4.3594    2.4134 H         1 <0>         0.1015
     53 H18         9.5741   -5.6077    0.8032 H         1 <0>         0.4539
     54 H19         6.7243    0.0374    1.2015 H         1 <0>         0.4707
@<TRIPOS>BOND
     1    1    6 ar
     2    1    2 ar
     3    1   36 1
     4    2    3 ar
     5    2   37 1
     6    3    4 ar
     7    3   38 1
     8    4    5 ar
     9    4    7 1
    10    5    6 ar
    11    5   39 1
    12    6   40 1
    13    7    8 1
    14    7   41 1
    15    7   42 1
    16    8    9 1
    17    8   43 1
    18    8   44 1
    19    9   19 2
    20    9   10 1
    21   10   11 1
    22   10   54 1
    23   11   12 1
    24   11   28 1
    25   11   32 1
    26   12   18 2
    27   12   13 1
    28   13   14 am
    29   13   27 2
    30   14   15 am
    31   14   53 1
    32   15   17 am
    33   15   16 2
    34   17   18 1
    35   17   20 1
    36   18   19 1
    37   19   45 1
    38   20   21 1
    39   20   46 1
    40   20   47 1
    41   21   26 ar
    42   21   22 ar
    43   22   23 ar
    44   22   48 1
    45   23   24 ar
    46   23   49 1
    47   24   25 ar
    48   24   50 1
    49   25   26 ar
    50   25   51 1
    51   26   52 1
    52   28   29 1
    53   28   30 1
    54   28   31 1
    55   32   33 1
    56   32   34 1
    57   32   35 1
@<TRIPOS>MOLECULE
ZINC22402117
   57    61     0     0     0
SMALL
USER_CHARGES
2-(1,3-benzoxazol-2-ylamino)-1',7,7-trimethyl-spiro[6,8-dihydro-1H-quinazoline-4,4'-piperidine]-5-one
@<TRIPOS>ATOM
      1 C1         -5.7197   -1.6494    2.6973 C.3       1 <0>        -0.1545
      2 C2         -6.2563   -1.0850    1.3803 C.3       1 <0>        -0.0493
      3 C3         -5.0978   -0.8697    0.4036 C.3       1 <0>        -0.0987
      4 C4         -4.4378   -2.1907    0.1034 C.2       1 <0>         0.2740
      5 C5         -5.1401   -3.3438    0.1195 C.2       1 <0>        -0.3375
      6 C6         -6.5106   -3.3533    0.4278 C.2       1 <0>         0.4214
      7 O1         -7.1158   -4.4069    0.4282 O.2       1 <0>        -0.4809
      8 C7         -7.2411   -2.0798    0.7578 C.3       1 <0>        -0.1649
      9 C8         -4.4635   -4.6554   -0.1951 C.3       1 <0>         0.2097
     10 C9         -4.9578   -5.7189    0.7930 C.3       1 <0>        -0.1501
     11 C10        -4.3401   -7.0706    0.4294 C.3       1 <0>         0.0040
     12 N1         -4.7295   -7.4362   -0.9383 N.4       1 <0>        -0.3949
     13 C11        -4.2322   -6.4556   -1.9113 C.3       1 <0>         0.0061
     14 C12        -4.8450   -5.0851   -1.6161 C.3       1 <0>        -0.1357
     15 C13        -4.2684   -8.7902   -1.2728 C.3       1 <0>        -0.0437
     16 N2         -3.0139   -4.5377   -0.0948 N.2       1 <0>        -0.6031
     17 C14        -2.4015   -3.3986   -0.0960 C.2       1 <0>         0.6254
     18 N3         -3.0991   -2.2144   -0.1806 N.pl3     1 <0>        -0.6832
     19 N4         -1.0262   -3.3692   -0.0051 N.pl3     1 <0>        -0.6090
     20 C15        -0.3079   -4.5481   -0.0226 C.2       1 <0>         0.5032
     21 N5          0.9971   -4.6301   -0.0393 N.2       1 <0>        -0.5051
     22 C16         1.3520   -5.9440   -0.0533 C.ar      1 <0>         0.0485
     23 C17         2.5775   -6.6114   -0.0737 C.ar      1 <0>        -0.0643
     24 C18         2.6053   -7.9887   -0.0845 C.ar      1 <0>        -0.1089
     25 C19         1.4239   -8.7143   -0.0752 C.ar      1 <0>        -0.0949
     26 C20         0.2052   -8.0669   -0.0551 C.ar      1 <0>        -0.0915
     27 C21         0.1589   -6.6822   -0.0440 C.ar      1 <0>        -0.0070
     28 O2         -0.8482   -5.7793   -0.0249 O.3       1 <0>        -0.1931
     29 C22        -6.9620    0.2470    1.6419 C.3       1 <0>        -0.1477
     30 H1         -5.0130   -0.9334    3.1421 H         1 <0>         0.0646
     31 H2         -5.2043   -2.6020    2.5050 H         1 <0>         0.0530
     32 H3         -6.5560   -1.8186    3.3915 H         1 <0>         0.0683
     33 H4         -5.4817   -0.4323   -0.5299 H         1 <0>         0.1106
     34 H5         -4.3616   -0.1869    0.8528 H         1 <0>         0.1009
     35 H6         -8.0498   -2.2913    1.4729 H         1 <0>         0.1044
     36 H7         -7.6669   -1.6485   -0.1602 H         1 <0>         0.1071
     37 H8         -4.6578   -5.4388    1.8136 H         1 <0>         0.0972
     38 H9         -6.0543   -5.7880    0.7392 H         1 <0>         0.1361
     39 H10        -3.2441   -7.0016    0.4920 H         1 <0>         0.1308
     40 H11        -4.6997   -7.8385    1.1301 H         1 <0>         0.1229
     41 H12        -3.1366   -6.3899   -1.8384 H         1 <0>         0.1286
     42 H13        -4.5138   -6.7713   -2.9267 H         1 <0>         0.1238
     43 H14        -5.9402   -5.1457   -1.6992 H         1 <0>         0.0976
     44 H15        -4.4628   -4.3476   -2.3373 H         1 <0>         0.0976
     45 H16        -4.5729   -9.0378   -2.3004 H         1 <0>         0.1217
     46 H17        -4.7150   -9.5127   -0.5739 H         1 <0>         0.1234
     47 H18        -3.1721   -8.8339   -1.1946 H         1 <0>         0.1150
     48 H19        -2.5830   -1.2889   -0.4756 H         1 <0>         0.4487
     49 H20        -0.5012   -2.4065    0.0814 H         1 <0>         0.4823
     50 H21         3.5003   -6.0504   -0.0806 H         1 <0>         0.1397
     51 H22         3.5531   -8.5063   -0.1003 H         1 <0>         0.1420
     52 H23         1.4576   -9.7938   -0.0839 H         1 <0>         0.1428
     53 H24        -0.7109   -8.6388   -0.0435 H         1 <0>         0.1264
     54 H25        -7.3467    0.6505    0.6937 H         1 <0>         0.0646
     55 H26        -6.2486    0.9598    2.0812 H         1 <0>         0.0659
     56 H27        -7.7980    0.0883    2.3390 H         1 <0>         0.0692
     57 H28        -5.8284   -7.4298   -0.9874 H         1 <0>         0.4403
@<TRIPOS>BOND
     1    1    2 1
     2    1   30 1
     3    1   31 1
     4    1   32 1
     5    2    8 1
     6    2    3 1
     7    2   29 1
     8    3    4 1
     9    3   33 1
    10    3   34 1
    11    4   18 1
    12    4    5 2
    13    5    6 1
    14    5    9 1
    15    6    7 2
    16    6    8 1
    17    8   35 1
    18    8   36 1
    19    9   14 1
    20    9   10 1
    21    9   16 1
    22   10   11 1
    23   10   37 1
    24   10   38 1
    25   11   12 1
    26   11   39 1
    27   11   40 1
    28   12   13 1
    29   12   15 1
    30   12   57 1
    31   13   14 1
    32   13   41 1
    33   13   42 1
    34   14   43 1
    35   14   44 1
    36   15   45 1
    37   15   46 1
    38   15   47 1
    39   16   17 2
    40   17   18 1
    41   17   19 1
    42   18   48 1
    43   19   20 1
    44   19   49 1
    45   20   28 1
    46   20   21 2
    47   21   22 1
    48   22   27 ar
    49   22   23 ar
    50   23   24 ar
    51   23   50 1
    52   24   25 ar
    53   24   51 1
    54   25   26 ar
    55   25   52 1
    56   26   27 ar
    57   26   53 1
    58   27   28 1
    59   29   54 1
    60   29   55 1
    61   29   56 1
@<TRIPOS>MOLECULE
ZINC39951175
   54    57     0     0     0
SMALL
USER_CHARGES

@<TRIPOS>ATOM
      1 C1         -0.2658    1.3771   -0.0104 C.3       1 <0>        -0.1500
      2 C2         -0.1537   -0.1480    0.0390 C.3       1 <0>        -0.1352
      3 C3          0.4779   -0.6553   -1.2590 C.3       1 <0>        -0.0910
      4 C4          0.5900   -2.1804   -1.2096 C.3       1 <0>        -0.1686
      5 C5          1.4516   -2.6186   -0.0372 C.3       1 <0>         0.0947
      6 N1          1.8998   -3.9822   -0.0277 N.3       1 <0>        -0.5537
      7 C6          1.0667   -4.9983    0.5721 C.3       1 <0>         0.0468
      8 C7         -0.3972   -4.8519    0.3541 C.3       1 <0>        -0.1351
      9 C8         -0.7962   -4.3140   -0.9864 C.3       1 <0>        -0.1321
     10 C9         -0.7842   -2.8191   -1.0498 C.2       1 <0>         0.3791
     11 O1         -1.7943   -2.1625   -0.9666 O.2       1 <0>        -0.4249
     12 C10         0.0561   -4.8920   -2.1143 C.3       1 <0>         0.0605
     13 N2          1.3103   -4.1922   -2.3374 N.3       1 <0>        -0.5817
     14 C11         1.1475   -2.7291   -2.5333 C.3       1 <0>         0.0839
     15 C12         2.3559   -4.4554   -1.3488 C.3       1 <0>         0.2949
     16 H1          3.2662   -3.9266   -1.6312 H         1 <0>         0.1407
     17 C13         2.6297   -5.9361   -1.2868 C.2       1 <0>         0.1923
     18 C14         3.3966   -6.4433   -0.2980 C.2       1 <0>        -0.2336
     19 C15         3.6391   -7.8376   -0.2608 C.2       1 <0>         0.5521
     20 O2          4.3273   -8.3183    0.6215 O.2       1 <0>        -0.5019
     21 N3          3.1008   -8.6284   -1.2110 N.am      1 <0>        -0.6591
     22 H2          3.2622   -9.5847   -1.1920 H         1 <0>         0.4330
     23 C16         2.3400   -8.0963   -2.1854 C.2       1 <0>         0.6973
     24 O3          1.8611   -8.8217   -3.0356 O.2       1 <0>        -0.5359
     25 N4          2.0976   -6.7736   -2.2291 N.am      1 <0>        -0.6297
     26 H3          1.5434   -6.4098   -2.9372 H         1 <0>         0.4418
     27 C17         3.9868   -5.5372    0.7516 C.3       1 <0>        -0.0742
     28 C18        -2.2347   -4.7659   -1.2464 C.3       1 <0>        -0.1100
     29 C19        -2.2735   -6.2891   -1.3851 C.3       1 <0>        -0.1599
     30 H4          0.7276    1.8109   -0.1248 H         1 <0>         0.0532
     31 H5         -0.8890    1.6684   -0.8558 H         1 <0>         0.0537
     32 H6         -0.7157    1.7384    0.9143 H         1 <0>         0.0539
     33 H7          0.4696   -0.4394    0.8844 H         1 <0>         0.0591
     34 H8         -1.1471   -0.5818    0.1534 H         1 <0>         0.0768
     35 H9         -0.1454   -0.3639   -2.1044 H         1 <0>         0.0708
     36 H10         1.4713   -0.2215   -1.3734 H         1 <0>         0.0745
     37 H11         2.3317   -1.9762   -0.0093 H         1 <0>         0.0930
     38 H12         0.8856   -2.4454    0.8781 H         1 <0>         0.0797
     39 H13         1.3742   -5.9668    0.1776 H         1 <0>         0.0818
     40 H14         1.2522   -5.0000    1.6462 H         1 <0>         0.0860
     41 H15        -0.8619   -5.8294    0.4828 H         1 <0>         0.0904
     42 H16        -0.7926   -4.1863    1.1214 H         1 <0>         0.0666
     43 H17         0.2777   -5.9335   -1.8815 H         1 <0>         0.0894
     44 H18        -0.5248   -4.8634   -3.0362 H         1 <0>         0.0923
     45 H19         0.4503   -2.5221   -3.3452 H         1 <0>         0.0915
     46 H20         2.1148   -2.2743   -2.7469 H         1 <0>         0.1007
     47 H21         3.3325   -5.5162    1.6231 H         1 <0>         0.0742
     48 H22         4.9685   -5.9104    1.0433 H         1 <0>         0.0679
     49 H23         4.0864   -4.5298    0.3476 H         1 <0>         0.0837
     50 H24        -2.8677   -4.4607   -0.4132 H         1 <0>         0.0725
     51 H25        -2.5987   -4.3080   -2.1661 H         1 <0>         0.0687
     52 H26        -1.8325   -6.7460   -0.4991 H         1 <0>         0.0592
     53 H27        -3.3075   -6.6184   -1.4872 H         1 <0>         0.0628
     54 H28        -1.7081   -6.5882   -2.2677 H         1 <0>         0.0573
@<TRIPOS>BOND
     1    1    2 1
     2    1   30 1
     3    1   31 1
     4    1   32 1
     5    2    3 1
     6    2   33 1
     7    2   34 1
     8    3    4 1
     9    3   35 1
    10    3   36 1
    11    4   10 1
    12    4   14 1
    13    4    5 1
    14    5    6 1
    15    5   37 1
    16    5   38 1
    17    6   15 1
    18    6    7 1
    19    7    8 1
    20    7   39 1
    21    7   40 1
    22    8    9 1
    23    8   41 1
    24    8   42 1
    25    9   10 1
    26    9   12 1
    27    9   28 1
    28   10   11 2
    29   12   13 1
    30   12   43 1
    31   12   44 1
    32   13   14 1
    33   13   15 1
    34   14   45 1
    35   14   46 1
    36   15   16 1
    37   15   17 1
    38   17   25 1
    39   17   18 2
    40   18   19 1
    41   18   27 1
    42   19   20 2
    43   19   21 am
    44   21   22 1
    45   21   23 am
    46   23   24 2
    47   23   25 am
    48   25   26 1
    49   27   47 1
    50   27   48 1
    51   27   49 1
    52   28   29 1
    53   28   50 1
    54   28   51 1
    55   29   52 1
    56   29   53 1
    57   29   54 1
@<TRIPOS>MOLECULE
ZINC56946604
   60    61     0     0     0
SMALL
USER_CHARGES

@<TRIPOS>ATOM
      1 C1         -0.0187    1.5258    0.0104 C.3       1 <0>        -0.1513
      2 C2          0.0021   -0.0041    0.0020 C.3       1 <0>        -0.1078
      3 H1          0.5122   -0.3562   -0.8946 H         1 <0>         0.0911
      4 C3         -1.4343   -0.5350    0.0151 C.3       1 <0>        -0.1309
      5 C4         -1.4020   -2.0645    0.0857 C.3       1 <0>        -0.1102
      6 H2         -0.9208   -2.4601   -0.8088 H         1 <0>         0.0923
      7 C5         -0.6129   -2.4960    1.3237 C.3       1 <0>        -0.0069
      8 N1          0.7584   -1.9796    1.2388 N.4       1 <0>        -0.3824
      9 C6          0.7401   -0.5119    1.2425 C.3       1 <0>        -0.0114
     10 C7          1.5335   -2.4611    2.3901 C.3       1 <0>        -0.0195
     11 C8          2.9931   -2.0279    2.2393 C.3       1 <0>         0.1402
     12 H3          3.0559   -0.9406    2.2837 H         1 <0>         0.1145
     13 C9          3.8245   -2.6335    3.3720 C.3       1 <0>        -0.1680
     14 N2          3.5104   -2.4946    0.9505 N.am      1 <0>        -0.7653
     15 C10         4.5399   -1.8516    0.3648 C.2       1 <0>         0.7060
     16 O1          5.0395   -0.8842    0.9060 O.2       1 <0>        -0.5697
     17 N3          5.0158   -2.2810   -0.8208 N.am      1 <0>        -0.7348
     18 C11         6.1349   -1.5821   -1.4574 C.3       1 <0>         0.1626
     19 C12         5.6023   -0.3962   -2.2650 C.3       1 <0>        -0.1393
     20 C13         6.7778    0.3525   -2.9009 C.3       1 <0>         0.1190
     21 N4          7.5774   -0.5999   -3.6833 N.pl3     1 <0>        -1.0036
     22 C14         8.0636   -1.8209   -3.0266 C.3       1 <0>         0.1202
     23 C15         6.8737   -2.5453   -2.3893 C.3       1 <0>        -0.1397
     24 S1          7.9236   -0.3029   -5.2753 S.o2      1 <0>         2.6093
     25 O2          8.1239   -1.5877   -5.8485 O.2       1 <0>        -0.9520
     26 O3          6.8678    0.5347   -5.7258 O.2       1 <0>        -0.9533
     27 C16         9.4852    0.6198   -5.2486 C.3       1 <0>        -0.6721
     28 C17        -2.8316   -2.6020    0.1769 C.3       1 <0>        -0.1512
     29 H4          1.0039    1.9031    0.0027 H         1 <0>         0.0690
     30 H5         -0.5459    1.8868   -0.8726 H         1 <0>         0.0780
     31 H6         -0.5289    1.8773    0.9072 H         1 <0>         0.0678
     32 H7         -1.9606   -0.1411    0.8845 H         1 <0>         0.0839
     33 H8         -1.9466   -0.2229   -0.8949 H         1 <0>         0.0951
     34 H9         -1.0951   -2.1001    2.2175 H         1 <0>         0.1313
     35 H10        -0.5882   -3.5844    1.3771 H         1 <0>         0.1308
     36 H11         1.7630   -0.1355    1.2357 H         1 <0>         0.1317
     37 H12         0.2298   -0.1583    2.1385 H         1 <0>         0.1314
     38 H13         1.1222   -2.0391    3.3070 H         1 <0>         0.1479
     39 H14         1.4801   -3.5488    2.4348 H         1 <0>         0.1381
     40 H15         3.7617   -3.7208    3.3275 H         1 <0>         0.0688
     41 H16         4.8643   -2.3249    3.2645 H         1 <0>         0.0838
     42 H17         3.4396   -2.2863    4.3308 H         1 <0>         0.0790
     43 H18         3.1118   -3.2664    0.5187 H         1 <0>         0.3946
     44 H19         4.6172   -3.0528   -1.2526 H         1 <0>         0.3980
     45 H20         6.8205   -1.2207   -0.6910 H         1 <0>         0.0959
     46 H21         4.9358   -0.7589   -3.0475 H         1 <0>         0.0712
     47 H22         5.0562    0.2776   -1.6048 H         1 <0>         0.0793
     48 H23         6.3997    1.1372   -3.5562 H         1 <0>         0.1004
     49 H24         7.3963    0.7932   -2.1190 H         1 <0>         0.0750
     50 H25         8.5340   -2.4704   -3.7650 H         1 <0>         0.1040
     51 H26         8.7870   -1.5576   -2.2550 H         1 <0>         0.0760
     52 H27         7.2326   -3.4012   -1.8176 H         1 <0>         0.0852
     53 H28         6.1953   -2.8878   -3.1707 H         1 <0>         0.0772
     54 H29        10.2571    0.0138   -4.7743 H         1 <0>         0.1289
     55 H30         9.7850    0.8562   -6.2695 H         1 <0>         0.1311
     56 H31         9.3517    1.5437   -4.6858 H         1 <0>         0.1284
     57 H32        -3.3936   -2.2910   -0.7037 H         1 <0>         0.0781
     58 H33        -2.8080   -3.6906    0.2271 H         1 <0>         0.0686
     59 H34        -3.3117   -2.2073    1.0724 H         1 <0>         0.0680
     60 H35         1.1878   -2.3068    0.3863 H         1 <0>         0.4176
@<TRIPOS>BOND
     1    1    2 1
     2    1   29 1
     3    1   30 1
     4    1   31 1
     5    2    3 1
     6    2    9 1
     7    2    4 1
     8    4    5 1
     9    4   32 1
    10    4   33 1
    11    5    6 1
    12    5    7 1
    13    5   28 1
    14    7    8 1
    15    7   34 1
    16    7   35 1
    17    8    9 1
    18    8   10 1
    19    8   60 1
    20    9   36 1
    21    9   37 1
    22   10   11 1
    23   10   38 1
    24   10   39 1
    25   11   12 1
    26   11   13 1
    27   11   14 1
    28   13   40 1
    29   13   41 1
    30   13   42 1
    31   14   15 am
    32   14   43 1
    33   15   16 2
    34   15   17 am
    35   17   18 1
    36   17   44 1
    37   18   23 1
    38   18   19 1
    39   18   45 1
    40   19   20 1
    41   19   46 1
    42   19   47 1
    43   20   21 1
    44   20   48 1
    45   20   49 1
    46   21   22 1
    47   21   24 1
    48   22   23 1
    49   22   50 1
    50   22   51 1
    51   23   52 1
    52   23   53 1
    53   24   25 2
    54   24   26 2
    55   24   27 1
    56   27   54 1
    57   27   55 1
    58   27   56 1
    59   28   57 1
    60   28   58 1
    61   28   59 1
@<TRIPOS>MOLECULE
ZINC64417441
   49    52     0     0     0
SMALL
USER_CHARGES

@<TRIPOS>ATOM
      1 C1         -0.0173    1.4248    0.0099 C.3       1 <0>         0.0241
      2 O1          0.0021   -0.0041    0.0020 O.3       1 <0>        -0.3032
      3 C2         -1.2019   -0.6383    0.0101 C.ar      1 <0>         0.0601
      4 C3         -2.3677    0.1016    0.0195 C.ar      1 <0>        -0.0770
      5 C4         -3.5989   -0.5543    0.0264 C.ar      1 <0>        -0.2036
      6 C5         -3.6447   -1.9609    0.0198 C.ar      1 <0>         0.2403
      7 C6         -2.4725   -2.6921    0.0135 C.ar      1 <0>        -0.2366
      8 C7         -1.2517   -2.0331    0.0031 C.ar      1 <0>         0.1771
      9 O2         -0.0981   -2.7495   -0.0092 O.3       1 <0>        -0.2942
     10 C8         -0.2188   -4.1734   -0.0158 C.3       1 <0>         0.0220
     11 N1         -4.8948   -2.5751    0.0143 N.pl3     1 <0>        -0.7609
     12 C9         -6.0168   -1.8735   -0.6215 C.3       1 <0>         0.5472
     13 H1         -6.9539   -2.3352   -0.3107 H         1 <0>         0.1083
     14 N2         -6.0187   -0.4636   -0.2316 N.am      1 <0>        -0.6072
     15 C10        -4.8698    0.1880    0.0425 C.2       1 <0>         0.5882
     16 O3         -4.8840    1.3765    0.3007 O.2       1 <0>        -0.5254
     17 C11        -7.2923    0.2542   -0.1371 C.3       1 <0>         0.1253
     18 C12        -7.8489    0.1207    1.2818 C.3       1 <0>        -0.1125
     19 C13        -9.1590    0.8591    1.3790 C.2       1 <0>         0.0774
     20 C14       -10.3989    0.3376    1.2371 C.ar      1 <0>        -0.1734
     21 C15       -10.8803   -1.0209    0.9593 C.ar      1 <0>        -0.0124
     22 C16       -12.2121   -1.2398    0.8718 C.ar      1 <0>        -0.1508
     23 C17       -13.1417   -0.2041    1.0389 C.ar      1 <0>         0.0519
     24 C18       -12.7761    1.0695    1.2963 C.ar      1 <0>        -0.2080
     25 C19       -11.4009    1.4135    1.4099 C.ar      1 <0>         0.3267
     26 N3        -10.8037    2.5557    1.6493 N.pl3     1 <0>        -0.5845
     27 C20        -9.3537    2.3320    1.6614 C.3       1 <0>         0.0590
     28 O4         -5.8905   -1.9684   -2.0417 O.3       1 <0>        -0.5844
     29 H2          1.0053    1.8021    0.0021 H         1 <0>         0.1054
     30 H3         -0.5445    1.7859   -0.8732 H         1 <0>         0.0558
     31 H4         -0.5275    1.7763    0.9067 H         1 <0>         0.0562
     32 H5         -2.3267    1.1808    0.0217 H         1 <0>         0.1502
     33 H6         -2.5064   -3.7716    0.0125 H         1 <0>         0.1464
     34 H7          0.7745   -4.6222   -0.0255 H         1 <0>         0.1078
     35 H8         -0.7549   -4.4968    0.8764 H         1 <0>         0.0592
     36 H9         -0.7680   -4.4874   -0.9035 H         1 <0>         0.0597
     37 H10        -5.0212   -3.4466    0.4210 H         1 <0>         0.4166
     38 H11        -7.1335    1.3077   -0.3675 H         1 <0>         0.1026
     39 H12        -8.0020   -0.1701   -0.8473 H         1 <0>         0.0948
     40 H13        -8.0076   -0.9328    1.5121 H         1 <0>         0.1100
     41 H14        -7.1391    0.5450    1.9919 H         1 <0>         0.1176
     42 H15       -10.1815   -1.8336    0.8264 H         1 <0>         0.1582
     43 H16       -12.5686   -2.2385    0.6675 H         1 <0>         0.1572
     44 H17       -14.1938   -0.4346    0.9579 H         1 <0>         0.1604
     45 H18       -13.5321    1.8314    1.4164 H         1 <0>         0.1602
     46 H19        -8.9405    2.5852    2.6378 H         1 <0>         0.1760
     47 H20        -8.8770    2.9298    0.8846 H         1 <0>         0.1761
     48 H21        -5.8928   -2.8755   -2.3770 H         1 <0>         0.4004
     49 H22       -11.2466    3.4059    1.7977 H         1 <0>         0.4559
@<TRIPOS>BOND
     1    1    2 1
     2    1   29 1
     3    1   30 1
     4    1   31 1
     5    2    3 1
     6    3    8 ar
     7    3    4 ar
     8    4    5 ar
     9    4   32 1
    10    5   15 1
    11    5    6 ar
    12    6    7 ar
    13    6   11 1
    14    7    8 ar
    15    7   33 1
    16    8    9 1
    17    9   10 1
    18   10   34 1
    19   10   35 1
    20   10   36 1
    21   11   12 1
    22   11   37 1
    23   12   13 1
    24   12   14 1
    25   12   28 1
    26   14   15 am
    27   14   17 1
    28   15   16 2
    29   17   18 1
    30   17   38 1
    31   17   39 1
    32   18   19 1
    33   18   40 1
    34   18   41 1
    35   19   27 1
    36   19   20 2
    37   20   25 ar
    38   20   21 ar
    39   21   22 ar
    40   21   42 1
    41   22   23 ar
    42   22   43 1
    43   23   24 ar
    44   23   44 1
    45   24   25 ar
    46   24   45 1
    47   25   26 2
    48   26   27 1
    49   26   49 1
    50   27   46 1
    51   27   47 1
    52   28   48 1
@<TRIPOS>MOLECULE
ZINC67642731
   57    60     0     0     0
SMALL
USER_CHARGES

@<TRIPOS>ATOM
      1 C1         -2.2575    1.7948   -0.2941 C.3       1 <0>        -0.1496
      2 C2         -1.9376    0.3912   -0.8124 C.3       1 <0>        -0.0910
      3 C3         -0.7991    0.4711   -1.8314 C.3       1 <0>        -0.1532
      4 C4         -1.5139   -0.4999    0.3569 C.3       1 <0>        -0.1279
      5 C5         -1.3403   -1.9383   -0.1349 C.3       1 <0>         0.2388
      6 H1         -0.6483   -1.9534   -0.9769 H         1 <0>         0.1054
      7 C6         -2.6752   -2.4843   -0.5720 C.2       1 <0>         0.2019
      8 N1         -3.6943   -2.7556    0.2011 N.2       1 <0>        -0.2664
      9 N2         -4.6740   -3.1969   -0.5097 N.2       1 <0>        -0.2475
     10 C7         -4.3255   -3.2216   -1.7621 C.2       1 <0>         0.1431
     11 N3         -3.0457   -2.7795   -1.8351 N.pl3     1 <0>        -0.4792
     12 C8         -2.2456   -2.6765   -3.0560 C.3       1 <0>         0.0741
     13 C9         -3.1819   -2.4598   -4.2489 C.3       1 <0>        -0.0312
     14 N4         -3.5762   -3.7521   -4.8164 N.4       1 <0>        -0.5055
     15 C10        -4.3197   -4.5519   -3.8424 C.3       1 <0>        -0.0165
     16 C11        -5.1572   -3.6418   -2.9468 C.3       1 <0>        -0.0526
     17 N5         -0.8066   -2.7646    0.9508 N.am      1 <0>        -0.7286
     18 C12         0.5215   -2.8045    1.1768 C.2       1 <0>         0.6016
     19 O1          1.2687   -2.0849    0.5410 O.2       1 <0>        -0.5330
     20 C13         1.0669   -3.7169    2.1909 C.2       1 <0>        -0.2403
     21 C14         0.3617   -4.5824    2.9740 C.2       1 <0>         0.1160
     22 N6          1.2081   -5.2571    3.7887 N.pl3     1 <0>        -0.4668
     23 C15         2.5098   -4.8565    3.5689 C.ar      1 <0>         0.0834
     24 C16         2.4853   -3.8819    2.5581 C.ar      1 <0>        -0.0604
     25 C17         3.6717   -3.2975    2.1225 C.ar      1 <0>        -0.0687
     26 C18         4.8688   -3.6830    2.6856 C.ar      1 <0>        -0.1344
     27 C19         4.8952   -4.6484    3.6812 C.ar      1 <0>        -0.0958
     28 C20         3.7276   -5.2282    4.1283 C.ar      1 <0>        -0.1227
     29 C21         0.7987   -6.2689    4.7659 C.3       1 <0>         0.0684
     30 H2         -2.5593    2.4296   -1.1271 H         1 <0>         0.0580
     31 H3         -3.0686    1.7379    0.4319 H         1 <0>         0.0582
     32 H4         -1.3725    2.2167    0.1822 H         1 <0>         0.0629
     33 H5         -2.8226   -0.0307   -1.2887 H         1 <0>         0.0559
     34 H6          0.0697    0.9401   -1.3695 H         1 <0>         0.0708
     35 H7         -0.5365   -0.5337   -2.1623 H         1 <0>         0.0442
     36 H8         -1.1193    1.0638   -2.6883 H         1 <0>         0.0583
     37 H9         -0.5698   -0.1392    0.7652 H         1 <0>         0.0941
     38 H10        -2.2797   -0.4709    1.1320 H         1 <0>         0.0819
     39 H11        -1.5599   -1.8333   -2.9727 H         1 <0>         0.1441
     40 H12        -1.6790   -3.5965   -3.1995 H         1 <0>         0.1141
     41 H13        -4.0713   -1.9233   -3.9182 H         1 <0>         0.1493
     42 H14        -2.6685   -1.8720   -5.0098 H         1 <0>         0.1653
     43 H15        -4.1563   -3.5944   -5.6267 H         1 <0>         0.4398
     44 H16        -4.9762   -5.2448   -4.3687 H         1 <0>         0.1573
     45 H17        -3.6190   -5.1159   -3.2267 H         1 <0>         0.1338
     46 H18        -6.0427   -4.1751   -2.6010 H         1 <0>         0.1497
     47 H19        -5.4569   -2.7606   -3.5141 H         1 <0>         0.1135
     48 H20        -1.4090   -3.2829    1.5069 H         1 <0>         0.4066
     49 H21        -0.7104   -4.7105    2.9487 H         1 <0>         0.1742
     50 H22         3.6537   -2.5462    1.3469 H         1 <0>         0.1325
     51 H23         5.7908   -3.2316    2.3499 H         1 <0>         0.1282
     52 H24         5.8392   -4.9436    4.1151 H         1 <0>         0.1305
     53 H25         3.7596   -5.9801    4.9029 H         1 <0>         0.1230
     54 H26         0.8016   -7.2516    4.2943 H         1 <0>         0.0774
     55 H27         1.4946   -6.2664    5.6048 H         1 <0>         0.0892
     56 H28        -0.2048   -6.0415    5.1256 H         1 <0>         0.0896
     57 H29        -2.7486   -4.2569   -5.0962 H         1 <0>         0.4362
@<TRIPOS>BOND
     1    1    2 1
     2    1   30 1
     3    1   31 1
     4    1   32 1
     5    2    3 1
     6    2    4 1
     7    2   33 1
     8    3   34 1
     9    3   35 1
    10    3   36 1
    11    4    5 1
    12    4   37 1
    13    4   38 1
    14    5    6 1
    15    5    7 1
    16    5   17 1
    17    7   11 1
    18    7    8 2
    19    8    9 1
    20    9   10 2
    21   10   16 1
    22   10   11 1
    23   11   12 1
    24   12   13 1
    25   12   39 1
    26   12   40 1
    27   13   14 1
    28   13   41 1
    29   13   42 1
    30   14   15 1
    31   14   43 1
    32   14   57 1
    33   15   16 1
    34   15   44 1
    35   15   45 1
    36   16   46 1
    37   16   47 1
    38   17   18 am
    39   17   48 1
    40   18   19 2
    41   18   20 1
    42   20   24 1
    43   20   21 2
    44   21   22 1
    45   21   49 1
    46   22   23 1
    47   22   29 1
    48   23   28 ar
    49   23   24 ar
    50   24   25 ar
    51   25   26 ar
    52   25   50 1
    53   26   27 ar
    54   26   51 1
    55   27   28 ar
    56   27   52 1
    57   28   53 1
    58   29   54 1
    59   29   55 1
    60   29   56 1
@<TRIPOS>MOLECULE
ZINC08793177
   53    56     0     0     0
SMALL
USER_CHARGES
8-[4-(2,5-dioxopyrrolidin-1-yl)benzoyl]amino-4-ethyl-7-thia-4-azabicyclo[4.3.0]nona-8,10-diene-9-carboxamide
@<TRIPOS>ATOM
      1 C1          6.5490    5.6247   -1.2636 C.3       1 <0>        -0.1898
      2 C2          6.4083    5.2843    0.2214 C.3       1 <0>        -0.0044
      3 C3          5.8364    3.0101   -0.3837 C.3       1 <0>         0.0003
      4 C4          5.0407    1.7873    0.0820 C.3       1 <0>        -0.0901
      5 C5          3.5598    2.1472    0.0587 C.2       1 <0>        -0.0388
      6 C6          3.1772    3.4438    0.0178 C.2       1 <0>        -0.3197
      7 S1          1.4095    3.3920   -0.0085 S.3       1 <0>         0.3314
      8 C7          1.1791    1.6751    0.0466 C.2       1 <0>         0.1059
      9 C8          2.4772    1.1817    0.0753 C.2       1 <0>        -0.2393
     10 C9          2.7431   -0.2593    0.1200 C.2       1 <0>         0.5755
     11 O1          2.8646   -0.8881   -0.9150 O.2       1 <0>        -0.5206
     12 N1          2.8529   -0.8878    1.3072 N.am      1 <0>        -0.8448
     13 N2         -0.0113    0.9663    0.0542 N.am      1 <0>        -0.6167
     14 C10        -1.1873    1.6237    0.0165 C.2       1 <0>         0.5673
     15 O2         -1.2035    2.8390   -0.0191 O.2       1 <0>        -0.4875
     16 C11        -2.4553    0.8685    0.0184 C.ar      1 <0>        -0.1401
     17 C12        -2.4385   -0.5284    0.0534 C.ar      1 <0>        -0.0681
     18 C13        -3.6237   -1.2295    0.0604 C.ar      1 <0>        -0.1046
     19 C14        -4.8361   -0.5495    0.0215 C.ar      1 <0>         0.1552
     20 C15        -4.8566    0.8404   -0.0192 C.ar      1 <0>        -0.1050
     21 C16        -3.6756    1.5484   -0.0206 C.ar      1 <0>        -0.0325
     22 N3         -6.0372   -1.2648    0.0228 N.am      1 <0>        -0.5406
     23 C17        -6.8960   -1.2368    1.0495 C.2       1 <0>         0.5268
     24 O3         -6.7446   -0.6078    2.0746 O.2       1 <0>        -0.4645
     25 C18        -8.0872   -2.1121    0.7260 C.3       1 <0>        -0.1540
     26 C19        -7.7597   -2.6645   -0.6762 C.3       1 <0>        -0.1538
     27 C20        -6.4206   -2.0388   -1.0001 C.2       1 <0>         0.5263
     28 O4         -5.7941   -2.2113   -2.0234 O.2       1 <0>        -0.4644
     29 C21         4.0809    4.6366   -0.0046 C.3       1 <0>         0.1052
     30 H1          7.2717    6.4316   -1.3845 H         1 <0>         0.1070
     31 H2          6.8926    4.7446   -1.8072 H         1 <0>         0.0811
     32 H3          5.5827    5.9404   -1.6571 H         1 <0>         0.0803
     33 H4          6.0647    6.1643    0.7649 H         1 <0>         0.1321
     34 H5          7.3746    4.9685    0.6148 H         1 <0>         0.1321
     35 H6          5.6458    3.1834   -1.4428 H         1 <0>         0.1353
     36 H7          6.9000    2.8256   -0.2333 H         1 <0>         0.1377
     37 H8          5.3383    1.5192    1.0957 H         1 <0>         0.1062
     38 H9          5.2263    0.9496   -0.5903 H         1 <0>         0.1243
     39 H10         2.7561   -0.3867    2.1320 H         1 <0>         0.4044
     40 H11         3.0288   -1.8413    1.3367 H         1 <0>         0.4102
     41 H12         0.0016   -0.0032    0.0826 H         1 <0>         0.4259
     42 H13        -1.4973   -1.0573    0.0792 H         1 <0>         0.1334
     43 H14        -3.6116   -2.3090    0.0919 H         1 <0>         0.1408
     44 H15        -5.8001    1.3652   -0.0493 H         1 <0>         0.1430
     45 H16        -3.6923    2.6279   -0.0515 H         1 <0>         0.1524
     46 H17        -9.0045   -1.5239    0.7020 H         1 <0>         0.1292
     47 H18        -8.1724   -2.9243    1.4480 H         1 <0>         0.1282
     48 H19        -8.5142   -2.3510   -1.3978 H         1 <0>         0.1288
     49 H20        -7.6794   -3.7512   -0.6513 H         1 <0>         0.1286
     50 H21         4.1062    5.0600   -1.0087 H         1 <0>         0.1446
     51 H22         3.7203    5.3846    0.7015 H         1 <0>         0.1421
     52 N4          5.4329    4.1890    0.4102 N.4       1 <0>        -0.3942
     53 H23         5.4093    3.9307    1.4036 H         1 <0>         0.4321
@<TRIPOS>BOND
     1    1    2 1
     2    1   30 1
     3    1   31 1
     4    1   32 1
     5    2   33 1
     6    2   34 1
     7    2   52 1
     8    3    4 1
     9    3   35 1
    10    3   36 1
    11    3   52 1
    12    4    5 1
    13    4   37 1
    14    4   38 1
    15    5    9 1
    16    5    6 2
    17    6    7 1
    18    6   29 1
    19    7    8 1
    20    8    9 2
    21    8   13 1
    22    9   10 1
    23   10   11 2
    24   10   12 am
    25   12   39 1
    26   12   40 1
    27   13   14 am
    28   13   41 1
    29   14   15 2
    30   14   16 1
    31   16   21 ar
    32   16   17 ar
    33   17   18 ar
    34   17   42 1
    35   18   19 ar
    36   18   43 1
    37   19   20 ar
    38   19   22 1
    39   20   21 ar
    40   20   44 1
    41   21   45 1
    42   22   27 am
    43   22   23 am
    44   23   24 2
    45   23   25 1
    46   25   26 1
    47   25   46 1
    48   25   47 1
    49   26   27 1
    50   26   48 1
    51   26   49 1
    52   27   28 2
    53   29   50 1
    54   29   51 1
    55   29   52 1
    56   52   53 1
@<TRIPOS>MOLECULE
ZINC38567453
   41    43     0     0     0
SMALL
USER_CHARGES

@<TRIPOS>ATOM
      1 C1         -0.0162    1.3438    0.0094 C.ar      1 <0>         0.0177
      2 C2          1.1577    2.1180    0.0024 C.ar      1 <0>         0.0182
      3 C3          2.3894    1.5703   -0.0128 C.ar      1 <0>        -0.1337
      4 C4          2.5325    0.1079   -0.0220 C.ar      1 <0>         0.3012
      5 N1          3.5686   -0.6799   -0.0365 N.pl3     1 <0>        -0.4705
      6 C5          3.0715   -2.0615   -0.0390 C.3       1 <0>         0.3079
      7 N2          1.6058   -1.9743   -0.0240 N.pl3     1 <0>        -0.4688
      8 C6          1.2899   -0.7116   -0.0141 C.ar      1 <0>         0.3048
      9 C7          0.0021   -0.0041    0.0020 C.ar      1 <0>        -0.1331
     10 C8          3.5589   -2.7888    1.1876 C.2       1 <0>        -0.1629
     11 C9          4.3172   -3.8839    1.0589 C.2       1 <0>        -0.0619
     12 C10         4.9016   -4.7590    2.1059 C.2       1 <0>         0.5255
     13 O1          4.7306   -4.5430    3.2903 O.2       1 <0>        -0.4310
     14 N3          5.6179   -5.7864    1.6813 N.am      1 <0>        -0.4754
     15 C11         5.8042   -6.0220    0.3671 C.2       1 <0>         0.2104
     16 S1          6.6903   -7.2883   -0.3693 S.2       1 <0>         0.0021
     17 S2          4.8989   -4.7003   -0.4212 S.3       1 <0>         0.0199
     18 C12         6.2236   -6.6900    2.6625 C.3       1 <0>         0.0390
     19 H1          5.9738   -6.3537    3.6688 H         1 <0>         0.1278
     20 C13         7.7435   -6.6885    2.4870 C.3       1 <0>        -0.1193
     21 C14         8.2942   -5.3006    2.8207 C.3       1 <0>        -0.1398
     22 C15         9.7912   -5.2992    2.6478 C.2       1 <0>         0.5135
     23 O2         10.3616   -6.3089    2.2926 O.2       1 <0>        -0.5236
     24 N4         10.4962   -4.1759    2.8879 N.am      1 <0>        -0.8588
     25 C16         5.6952   -8.0857    2.4536 C.2       1 <0>         0.4966
     26 O3          5.0337   -8.3451    1.4628 O.co2     1 <0>        -0.6417
     27 O4          5.9291   -8.9555    3.2753 O.co2     1 <0>        -0.6257
     28 H2         -0.9705    1.8493    0.0259 H         1 <0>         0.1943
     29 H3          1.0690    3.1943    0.0090 H         1 <0>         0.1941
     30 H4          3.2653    2.2022   -0.0185 H         1 <0>         0.1977
     31 H5          3.4063   -2.5780   -0.9386 H         1 <0>         0.2174
     32 H6         -0.9237   -0.5603    0.0082 H         1 <0>         0.1984
     33 H7          3.2963   -2.4263    2.1704 H         1 <0>         0.1919
     34 H8          8.1872   -7.4259    3.1559 H         1 <0>         0.1140
     35 H9          7.9903   -6.9389    1.4552 H         1 <0>         0.0966
     36 H10         7.8504   -4.5632    2.1518 H         1 <0>         0.0713
     37 H11         8.0474   -5.0503    3.8525 H         1 <0>         0.1000
     38 H12        10.0401   -3.3684    3.1720 H         1 <0>         0.3978
     39 H13        11.4598   -4.1750    2.7766 H         1 <0>         0.4046
     40 H14         4.4987   -0.4047   -0.0446 H         1 <0>         0.4907
     41 H15         0.9865   -2.7208   -0.0223 H         1 <0>         0.4926
@<TRIPOS>BOND
     1    1    9 ar
     2    1    2 ar
     3    1   28 1
     4    2    3 ar
     5    2   29 1
     6    3    4 ar
     7    3   30 1
     8    4    8 ar
     9    4    5 2
    10    5    6 1
    11    5   40 1
    12    6    7 1
    13    6   10 1
    14    6   31 1
    15    7    8 2
    16    7   41 1
    17    8    9 ar
    18    9   32 1
    19   10   11 2
    20   10   33 1
    21   11   17 1
    22   11   12 1
    23   12   13 2
    24   12   14 am
    25   14   15 1
    26   14   18 1
    27   15   16 2
    28   15   17 1
    29   18   19 1
    30   18   20 1
    31   18   25 1
    32   20   21 1
    33   20   34 1
    34   20   35 1
    35   21   22 1
    36   21   36 1
    37   21   37 1
    38   22   23 2
    39   22   24 am
    40   24   38 1
    41   24   39 1
    42   25   26 2
    43   25   27 1
@<TRIPOS>MOLECULE
ZINC39695860
   65    69     0     0     0
SMALL
USER_CHARGES

@<TRIPOS>ATOM
      1 C1          2.7635   -1.7762    8.7460 C.3       1 <0>        -0.1189
      2 C2          2.5235   -2.5596    7.4812 C.ar      1 <0>        -0.0552
      3 C3          3.4916   -2.5769    6.4870 C.ar      1 <0>        -0.1212
      4 C4          3.2932   -3.2808    5.3333 C.ar      1 <0>        -0.0613
      5 C5          2.1052   -3.9928    5.1477 C.ar      1 <0>         0.0390
      6 C6          1.1249   -3.9761    6.1541 C.ar      1 <0>         0.0593
      7 C7          1.3462   -3.2589    7.3220 C.ar      1 <0>        -0.1166
      8 N1          0.0864   -4.7570    5.6875 N.pl3     1 <0>        -0.5904
      9 H1         -0.7445   -4.9454    6.1512 H         1 <0>         0.4262
     10 C8          0.4443   -5.2130    4.4569 C.2       1 <0>         0.2638
     11 N2          1.6248   -4.7665    4.1405 N.2       1 <0>        -0.4856
     12 C9         -0.4028   -6.1056    3.5869 C.3       1 <0>         0.2283
     13 H2         -0.9617   -6.7999    4.2142 H         1 <0>         0.1104
     14 C10        -1.3794   -5.2505    2.7771 C.3       1 <0>        -0.1659
     15 N3          0.4602   -6.8588    2.6736 N.am      1 <0>        -0.7124
     16 C11         0.0440   -8.0388    2.1727 C.2       1 <0>         0.5247
     17 O1         -1.0448   -8.4771    2.4780 O.2       1 <0>        -0.5191
     18 C12         0.9317   -8.8136    1.2331 C.3       1 <0>        -0.1133
     19 H3          1.5294   -8.1319    0.6281 H         1 <0>         0.1177
     20 C13         0.0830   -9.7337    0.3272 C.3       1 <0>         0.0903
     21 N4          0.8906  -10.9682    0.1860 N.am      1 <0>        -0.6149
     22 C14         1.4748  -11.1825    1.5317 C.3       1 <0>         0.1157
     23 C15         1.8431   -9.7682    2.0226 C.3       1 <0>        -0.0722
     24 C16         1.5711   -9.6422    3.5185 C.3       1 <0>        -0.1488
     25 C17         2.5293  -10.5575    4.2859 C.3       1 <0>        -0.0070
     26 N5          3.9156  -10.1791    3.9865 N.4       1 <0>        -0.5049
     27 C18         4.1962  -10.3920    2.5615 C.3       1 <0>        -0.0108
     28 C19         3.3086   -9.4695    1.7212 C.3       1 <0>        -0.1359
     29 C20         1.0567  -11.7250   -0.9168 C.2       1 <0>         0.6270
     30 O2          1.5894  -12.8157   -0.8316 O.2       1 <0>        -0.5328
     31 C21         0.5951  -11.2336   -2.2204 C.2       1 <0>        -0.0984
     32 C22         0.2816   -9.9439   -2.5458 C.2       1 <0>         0.0338
     33 N6         -0.0918   -9.9260   -3.8255 N.2       1 <0>        -0.4925
     34 C23        -0.0291  -11.1360   -4.3199 C.2       1 <0>         0.2219
     35 N7          0.3967  -11.9817   -3.3647 N.pl3     1 <0>        -0.4252
     36 C24         0.6074  -13.4242   -3.5096 C.3       1 <0>         0.0629
     37 H4          3.2544   -2.4143    9.4809 H         1 <0>         0.0757
     38 H5          3.3995   -0.9185    8.5269 H         1 <0>         0.0739
     39 H6          1.8103   -1.4293    9.1449 H         1 <0>         0.0701
     40 H7          4.4111   -2.0278    6.6268 H         1 <0>         0.1337
     41 H8          4.0530   -3.2868    4.5658 H         1 <0>         0.1308
     42 H9          0.5977   -3.2455    8.1006 H         1 <0>         0.1265
     43 H10        -1.9921   -5.8961    2.1478 H         1 <0>         0.0807
     44 H11        -2.0214   -4.6900    3.4566 H         1 <0>         0.0726
     45 H12        -0.8204   -4.5561    2.1497 H         1 <0>         0.0717
     46 H13         1.3310   -6.5083    2.4293 H         1 <0>         0.4144
     47 H14        -0.8728   -9.9569    0.8011 H         1 <0>         0.1053
     48 H15        -0.0738   -9.2688   -0.6462 H         1 <0>         0.1117
     49 H16         0.7412  -11.6380    2.1968 H         1 <0>         0.0872
     50 H17         2.3669  -11.8051    1.4643 H         1 <0>         0.0897
     51 H18         1.7262   -8.6095    3.8307 H         1 <0>         0.0992
     52 H19         0.5423   -9.9355    3.7272 H         1 <0>         0.1250
     53 H20         2.3485  -10.4570    5.3561 H         1 <0>         0.1380
     54 H21         2.3623  -11.5919    3.9852 H         1 <0>         0.1338
     55 H22         4.0536   -9.2057    4.2134 H         1 <0>         0.4287
     56 H23         5.2441  -10.1694    2.3605 H         1 <0>         0.1404
     57 H24         3.9894  -11.4302    2.3019 H         1 <0>         0.1334
     58 H25         3.5046   -9.6410    0.6628 H         1 <0>         0.1194
     59 H26         3.5264   -8.4306    1.9685 H         1 <0>         0.1002
     60 H27         0.3280   -9.0913   -1.8844 H         1 <0>         0.1855
     61 H28        -0.2766  -11.4112   -5.3346 H         1 <0>         0.2186
     62 H29        -0.2708  -13.9580   -3.1465 H         1 <0>         0.0834
     63 H30         0.7696  -13.6640   -4.5605 H         1 <0>         0.0967
     64 H31         1.4804  -13.7239   -2.9297 H         1 <0>         0.1017
     65 H32         4.5437  -10.7429    4.5395 H         1 <0>         0.4340
@<TRIPOS>BOND
     1    1    2 1
     2    1   37 1
     3    1   38 1
     4    1   39 1
     5    2    7 ar
     6    2    3 ar
     7    3    4 ar
     8    3   40 1
     9    4    5 ar
    10    4   41 1
    11    5   11 1
    12    5    6 ar
    13    6    7 ar
    14    6    8 1
    15    7   42 1
    16    8    9 1
    17    8   10 1
    18   10   11 2
    19   10   12 1
    20   12   13 1
    21   12   14 1
    22   12   15 1
    23   14   43 1
    24   14   44 1
    25   14   45 1
    26   15   16 am
    27   15   46 1
    28   16   17 2
    29   16   18 1
    30   18   19 1
    31   18   23 1
    32   18   20 1
    33   20   21 1
    34   20   47 1
    35   20   48 1
    36   21   22 1
    37   21   29 am
    38   22   23 1
    39   22   49 1
    40   22   50 1
    41   23   28 1
    42   23   24 1
    43   24   25 1
    44   24   51 1
    45   24   52 1
    46   25   26 1
    47   25   53 1
    48   25   54 1
    49   26   27 1
    50   26   55 1
    51   26   65 1
    52   27   28 1
    53   27   56 1
    54   27   57 1
    55   28   58 1
    56   28   59 1
    57   29   30 2
    58   29   31 1
    59   31   35 1
    60   31   32 2
    61   32   33 1
    62   32   60 1
    63   33   34 2
    64   34   35 1
    65   34   61 1
    66   35   36 1
    67   36   62 1
    68   36   63 1
    69   36   64 1
@<TRIPOS>MOLECULE
ZINC58370707
   59    61     0     0     0
SMALL
USER_CHARGES

@<TRIPOS>ATOM
      1 C1          0.1629   -1.1005    1.0904 C.3       1 <0>        -0.1227
      2 C2          0.4461   -2.3705    0.3301 C.2       1 <0>         0.1848
      3 C3          0.3967   -2.5253   -1.0669 C.2       1 <0>        -0.8487
      4 C4          0.7117   -3.8019   -1.3584 C.2       1 <0>         0.2119
      5 O1          0.9536   -4.4431   -0.2048 O.3       1 <0>        -0.0719
      6 N1          0.7849   -3.5154    0.8519 N.2       1 <0>        -0.3033
      7 C5          0.7801   -4.4046   -2.7379 C.3       1 <0>        -0.1413
      8 S1         -0.0077   -1.2678   -2.2331 S.o2      1 <0>         2.7232
      9 O2         -0.4796   -1.9308   -3.3980 O.2       1 <0>        -0.9435
     10 O3         -0.7859   -0.3037   -1.5372 O.2       1 <0>        -0.9342
     11 N2          1.4073   -0.5184   -2.6554 N.pl3     1 <0>        -1.1001
     12 C6          2.4452   -1.2635   -3.3722 C.3       1 <0>         0.1367
     13 H1          2.3408   -2.3275   -3.1599 H         1 <0>         0.0981
     14 C7          2.2965   -1.0265   -4.8764 C.3       1 <0>        -0.1739
     15 C8          3.8038   -0.7924   -2.9213 C.2       1 <0>         0.5189
     16 O4          3.9431    0.3324   -2.4895 O.2       1 <0>        -0.5034
     17 N3          4.8641   -1.6209   -2.9979 N.am      1 <0>        -0.6215
     18 C9          4.7364   -2.9441   -3.6236 C.3       1 <0>         0.1014
     19 C10         5.8104   -3.0828   -4.7072 C.3       1 <0>        -0.1581
     20 C11         7.1856   -2.8071   -4.0950 C.3       1 <0>         0.0268
     21 C12         7.2274   -1.3762   -3.5538 C.3       1 <0>        -0.1590
     22 C13         6.1710   -1.2157   -2.4626 C.3       1 <0>         0.1164
     23 N4          8.2212   -2.9717   -5.1238 N.4       1 <0>        -0.3788
     24 C14         8.1998   -4.3593   -5.6338 C.3       1 <0>        -0.0105
     25 C15         9.6859   -4.7061   -5.8995 C.3       1 <0>        -0.1427
     26 C16        10.3913   -3.9869   -4.7196 C.3       1 <0>        -0.1317
     27 C17         9.5484   -2.7071   -4.5386 C.3       1 <0>        -0.0077
     28 H2          9.4469   -2.4768   -3.4781 H         1 <0>         0.1675
     29 C18        10.2045   -1.5554   -5.2558 C.2       1 <0>         0.5157
     30 O5          9.6285   -1.0021   -6.1685 O.2       1 <0>        -0.5235
     31 N5         11.4313   -1.1403   -4.8830 N.am      1 <0>        -0.8227
     32 H3          1.0860   -0.5324    1.2055 H         1 <0>         0.0984
     33 H4         -0.5653   -0.5033    0.5416 H         1 <0>         0.1205
     34 H5         -0.2369   -1.3473    2.0739 H         1 <0>         0.0957
     35 H6          1.7889   -4.2904   -3.1347 H         1 <0>         0.1025
     36 H7          0.5285   -5.4638   -2.6846 H         1 <0>         0.1106
     37 H8          0.0725   -3.8956   -3.3923 H         1 <0>         0.1397
     38 H9          1.5489    0.4140   -2.4283 H         1 <0>         0.4329
     39 H10         3.0832   -1.5619   -5.4080 H         1 <0>         0.0714
     40 H11         1.3231   -1.3889   -5.2068 H         1 <0>         0.0961
     41 H12         2.3774    0.0401   -5.0858 H         1 <0>         0.0797
     42 H13         4.8752   -3.7195   -2.8702 H         1 <0>         0.0899
     43 H14         3.7485   -3.0417   -4.0737 H         1 <0>         0.1083
     44 H15         5.7890   -4.0942   -5.1132 H         1 <0>         0.1080
     45 H16         5.6169   -2.3658   -5.5050 H         1 <0>         0.0983
     46 H17         7.3680   -3.5087   -3.2809 H         1 <0>         0.1431
     47 H18         8.2146   -1.1728   -3.1390 H         1 <0>         0.0958
     48 H19         7.0206   -0.6752   -4.3625 H         1 <0>         0.0980
     49 H20         6.1293   -0.1733   -2.1470 H         1 <0>         0.1158
     50 H21         6.4294   -1.8470   -1.6125 H         1 <0>         0.0838
     51 H22         7.7810   -5.0322   -4.8855 H         1 <0>         0.1381
     52 H23         7.6259   -4.4147   -6.5588 H         1 <0>         0.1405
     53 H24         9.8497   -5.7828   -5.8546 H         1 <0>         0.1260
     54 H25        10.0161   -4.3020   -6.8565 H         1 <0>         0.1010
     55 H26        10.3586   -4.6005   -3.8193 H         1 <0>         0.1165
     56 H27        11.4200   -3.7374   -4.9800 H         1 <0>         0.1160
     57 H28        11.8920   -1.5828   -4.1530 H         1 <0>         0.4140
     58 H29        11.8536   -0.3991   -5.3446 H         1 <0>         0.4257
     59 H30         8.0510   -2.3301   -5.8836 H         1 <0>         0.4313
@<TRIPOS>BOND
     1    1    2 1
     2    1   32 1
     3    1   33 1
     4    1   34 1
     5    2    6 2
     6    2    3 1
     7    3    4 2
     8    3    8 1
     9    4    5 1
    10    4    7 1
    11    5    6 1
    12    7   35 1
    13    7   36 1
    14    7   37 1
    15    8    9 2
    16    8   10 2
    17    8   11 1
    18   11   12 1
    19   11   38 1
    20   12   13 1
    21   12   14 1
    22   12   15 1
    23   14   39 1
    24   14   40 1
    25   14   41 1
    26   15   16 2
    27   15   17 am
    28   17   22 1
    29   17   18 1
    30   18   19 1
    31   18   42 1
    32   18   43 1
    33   19   20 1
    34   19   44 1
    35   19   45 1
    36   20   21 1
    37   20   23 1
    38   20   46 1
    39   21   22 1
    40   21   47 1
    41   21   48 1
    42   22   49 1
    43   22   50 1
    44   23   27 1
    45   23   24 1
    46   23   59 1
    47   24   25 1
    48   24   51 1
    49   24   52 1
    50   25   26 1
    51   25   53 1
    52   25   54 1
    53   26   27 1
    54   26   55 1
    55   26   56 1
    56   27   28 1
    57   27   29 1
    58   29   30 2
    59   29   31 am
    60   31   57 1
    61   31   58 1
@<TRIPOS>MOLECULE
ZINC64890556
   53    56     0     0     0
SMALL
USER_CHARGES

@<TRIPOS>ATOM
      1 C1         -0.0184    1.5028    0.0103 C.3       1 <0>        -0.1316
      2 C2          0.0021   -0.0041    0.0020 C.ar      1 <0>        -0.0176
      3 C3          0.0057   -0.6887   -1.1989 C.ar      1 <0>        -0.1389
      4 C4          0.0245   -2.0709   -1.2065 C.ar      1 <0>        -0.0107
      5 C5          0.0400   -2.7685   -0.0132 C.ar      1 <0>        -0.6904
      6 C6          0.0373   -2.0839    1.1877 C.ar      1 <0>        -0.0221
      7 C7          0.0229   -0.7016    1.1953 C.ar      1 <0>        -0.1411
      8 S1          0.0628   -4.5303   -0.0229 S.o2      1 <0>         2.6928
      9 O1         -0.4759   -4.9503    1.2232 O.2       1 <0>        -0.9471
     10 O2         -0.4897   -4.9367   -1.2674 O.2       1 <0>        -0.9377
     11 N1          1.6509   -4.9994   -0.0343 N.pl3     1 <0>        -1.1111
     12 C8          2.5116   -4.6990    1.1125 C.3       1 <0>         0.1230
     13 H1          1.8992   -4.5880    2.0073 H         1 <0>         0.1314
     14 C9          3.2735   -3.3981    0.8513 C.3       1 <0>        -0.1934
     15 C10         3.5084   -5.8418    1.3153 C.3       1 <0>         0.2500
     16 H2          2.9779   -6.7778    1.4901 H         1 <0>         0.1659
     17 N2          4.3995   -5.5446    2.4432 N.pl3     1 <0>        -0.6187
     18 C11         5.6211   -5.4978    2.0071 C.cat     1 <0>         0.5733
     19 N3          5.6806   -5.7375    0.6564 N.pl3     1 <0>        -0.5069
     20 O3          4.3653   -5.9629    0.1697 O.3       1 <0>        -0.0972
     21 C12         6.7998   -5.2209    2.8574 C.ar      1 <0>        -0.1327
     22 C13         6.7960   -5.5993    4.2026 C.ar      1 <0>        -0.0360
     23 C14         7.8914   -5.3431    4.9948 C.ar      1 <0>        -0.1227
     24 C15         9.0091   -4.7059    4.4613 C.ar      1 <0>         0.1991
     25 C16         9.0187   -4.3247    3.1168 C.ar      1 <0>         0.1263
     26 C17         7.9164   -4.5881    2.3162 C.ar      1 <0>        -0.0578
     27 N4         10.1291   -3.6863    2.5694 N.am      1 <0>        -0.6393
     28 H3         10.1262   -3.4253    1.6352 H         1 <0>         0.4293
     29 C18        11.2079   -3.4304    3.3369 C.2       1 <0>         0.5115
     30 O4         12.1786   -2.8733    2.8651 O.2       1 <0>        -0.4351
     31 C19        11.1962   -3.8384    4.7716 C.2       1 <0>         0.5040
     32 O5         12.1575   -3.6168    5.4800 O.2       1 <0>        -0.4271
     33 N5         10.1075   -4.4543    5.2746 N.am      1 <0>        -0.5314
     34 C20        10.0824   -4.8594    6.6823 C.3       1 <0>         0.0555
     35 H4          1.0042    1.8801    0.0026 H         1 <0>         0.0825
     36 H5         -0.5455    1.8639   -0.8728 H         1 <0>         0.0775
     37 H6         -0.5286    1.8543    0.9071 H         1 <0>         0.0769
     38 H7         -0.0064   -0.1436   -2.1312 H         1 <0>         0.1370
     39 H8          0.0266   -2.6057   -2.1448 H         1 <0>         0.1424
     40 H9          0.0491   -2.6289    2.1200 H         1 <0>         0.1386
     41 H10         0.0245   -0.1667    2.1335 H         1 <0>         0.1357
     42 H11         2.0112   -5.4731   -0.8002 H         1 <0>         0.4276
     43 H12         3.8859   -3.5091   -0.0435 H         1 <0>         0.0781
     44 H13         2.5633   -2.5839    0.7069 H         1 <0>         0.0909
     45 H14         3.9139   -3.1745    1.7045 H         1 <0>         0.0704
     46 H15         6.4896   -5.7512    0.1213 H         1 <0>         0.4889
     47 H16         5.9316   -6.0933    4.6212 H         1 <0>         0.1533
     48 H17         7.8844   -5.6368    6.0341 H         1 <0>         0.1674
     49 H18         7.9224   -4.2988    1.2757 H         1 <0>         0.1548
     50 H19        10.4743   -5.8722    6.7759 H         1 <0>         0.0880
     51 H20        10.6974   -4.1763    7.2680 H         1 <0>         0.1035
     52 H21         9.0568   -4.8313    7.0502 H         1 <0>         0.0963
     53 H22         4.1215   -5.4056    3.3620 H         1 <0>         0.4745
@<TRIPOS>BOND
     1    1    2 1
     2    1   35 1
     3    1   36 1
     4    1   37 1
     5    2    7 ar
     6    2    3 ar
     7    3    4 ar
     8    3   38 1
     9    4    5 ar
    10    4   39 1
    11    5    6 ar
    12    5    8 1
    13    6    7 ar
    14    6   40 1
    15    7   41 1
    16    8    9 2
    17    8   10 2
    18    8   11 1
    19   11   12 1
    20   11   42 1
    21   12   13 1
    22   12   14 1
    23   12   15 1
    24   14   43 1
    25   14   44 1
    26   14   45 1
    27   15   16 1
    28   15   20 1
    29   15   17 1
    30   17   18 2
    31   17   53 1
    32   18   19 1
    33   18   21 1
    34   19   20 1
    35   19   46 1
    36   21   26 ar
    37   21   22 ar
    38   22   23 ar
    39   22   47 1
    40   23   24 ar
    41   23   48 1
    42   24   33 1
    43   24   25 ar
    44   25   26 ar
    45   25   27 1
    46   26   49 1
    47   27   28 1
    48   27   29 am
    49   29   30 2
    50   29   31 1
    51   31   32 2
    52   31   33 am
    53   33   34 1
    54   34   50 1
    55   34   51 1
    56   34   52 1
@<TRIPOS>MOLECULE
ZINC46280697
   54    55     0     0     0
SMALL
USER_CHARGES

@<TRIPOS>ATOM
      1 C1          2.5230   -0.3432    0.0020 C.3       1 <0>        -0.1911
      2 C2          2.0800   -0.1408   -1.4484 C.3       1 <0>        -0.0221
      3 N1          0.6712   -0.5324   -1.5894 N.4       1 <0>        -0.3869
      4 C3          0.2039   -0.2011   -2.9421 C.3       1 <0>        -0.0234
      5 C4          0.1942    1.3184   -3.1205 C.3       1 <0>        -0.1864
      6 C5          0.5403   -1.9785   -1.3665 C.3       1 <0>         0.0075
      7 H1          0.9816   -2.2393   -0.4046 H         1 <0>         0.1492
      8 C6          1.2654   -2.7341   -2.4820 C.3       1 <0>        -0.1809
      9 C7         -0.9406   -2.3629   -1.3692 C.3       1 <0>         0.1135
     10 N2         -1.6476   -1.5901   -0.3449 N.am      1 <0>        -0.7639
     11 C8         -2.9524   -1.8263   -0.1034 C.2       1 <0>         0.7203
     12 O1         -3.5427   -2.6808   -0.7357 O.2       1 <0>        -0.5429
     13 N3         -3.6028   -1.1153    0.8389 N.am      1 <0>        -0.5189
     14 N4         -2.9226   -0.1308    1.5674 N.am      1 <0>        -0.5204
     15 C9         -3.5730    0.5802    2.5097 C.2       1 <0>         0.6042
     16 O2         -4.7500    0.3671    2.7276 O.2       1 <0>        -0.4954
     17 C10        -2.8562    1.6178    3.2775 C.2       1 <0>         0.0673
     18 C11        -3.5564    2.3951    4.3127 C.ar      1 <0>        -0.0419
     19 C12        -4.8990    2.2029    4.6197 C.ar      1 <0>        -0.0951
     20 C13        -5.4851    2.9715    5.6031 C.ar      1 <0>        -0.0805
     21 C14        -4.7510    3.9316    6.2871 C.ar      1 <0>        -0.1056
     22 C15        -3.4188    4.1382    5.9983 C.ar      1 <0>        -0.0508
     23 C16        -2.8090    3.3728    5.0093 C.ar      1 <0>        -0.1375
     24 C17        -1.3957    3.5274    4.6379 C.2       1 <0>         0.5168
     25 O3         -0.6914    4.3490    5.1955 O.2       1 <0>        -0.4839
     26 N5         -0.8968    2.7374    3.6649 N.am      1 <0>        -0.3626
     27 N6         -1.5871    1.8539    3.0489 N.2       1 <0>        -0.2068
     28 C18         0.5128    2.8955    3.2983 C.3       1 <0>         0.0795
     29 H2          1.9455    0.3129    0.6532 H         1 <0>         0.0806
     30 H3          2.3562   -1.3808    0.2913 H         1 <0>         0.0802
     31 H4          3.5828   -0.1061    0.0947 H         1 <0>         0.1102
     32 H5          2.1943    0.9086   -1.7201 H         1 <0>         0.1356
     33 H6          2.6954   -0.7553   -2.1055 H         1 <0>         0.1356
     34 H7          0.8724   -0.6490   -3.6773 H         1 <0>         0.1375
     35 H8         -0.8046   -0.5899   -3.0835 H         1 <0>         0.1328
     36 H9          1.2164    1.6951   -3.0835 H         1 <0>         0.0823
     37 H10        -0.2504    1.5684   -4.0838 H         1 <0>         0.1085
     38 H11        -0.3902    1.7744   -2.3214 H         1 <0>         0.0777
     39 H12         2.3204   -2.4602   -2.4801 H         1 <0>         0.0902
     40 H13         1.1682   -3.8071   -2.3166 H         1 <0>         0.1123
     41 H14         0.8240   -2.4733   -3.4439 H         1 <0>         0.0888
     42 H15        -1.3701   -2.1477   -2.3477 H         1 <0>         0.0987
     43 H16        -1.0402   -3.4269   -1.1548 H         1 <0>         0.1218
     44 H17        -1.1767   -0.9084    0.1595 H         1 <0>         0.3835
     45 H18        -4.5418   -1.2853    1.0127 H         1 <0>         0.4541
     46 H19        -1.9835    0.0392    1.3936 H         1 <0>         0.4198
     47 H20        -5.4775    1.4587    4.0925 H         1 <0>         0.1695
     48 H21        -6.5276    2.8253    5.8440 H         1 <0>         0.1414
     49 H22        -5.2291    4.5233    7.0537 H         1 <0>         0.1421
     50 H23        -2.8541    4.8864    6.5346 H         1 <0>         0.1463
     51 H24         1.1241    2.2331    3.9112 H         1 <0>         0.0834
     52 H25         0.6452    2.6422    2.2464 H         1 <0>         0.0894
     53 H26         0.8178    3.9286    3.4645 H         1 <0>         0.1043
     54 H27         0.1144   -0.0356   -0.9102 H         1 <0>         0.4121
@<TRIPOS>BOND
     1    1    2 1
     2    1   29 1
     3    1   30 1
     4    1   31 1
     5    2    3 1
     6    2   32 1
     7    2   33 1
     8    3    4 1
     9    3    6 1
    10    3   54 1
    11    4    5 1
    12    4   34 1
    13    4   35 1
    14    5   36 1
    15    5   37 1
    16    5   38 1
    17    6    7 1
    18    6    8 1
    19    6    9 1
    20    8   39 1
    21    8   40 1
    22    8   41 1
    23    9   10 1
    24    9   42 1
    25    9   43 1
    26   10   11 am
    27   10   44 1
    28   11   12 2
    29   11   13 am
    30   13   14 1
    31   13   45 1
    32   14   15 am
    33   14   46 1
    34   15   16 2
    35   15   17 1
    36   17   27 2
    37   17   18 1
    38   18   23 ar
    39   18   19 ar
    40   19   20 ar
    41   19   47 1
    42   20   21 ar
    43   20   48 1
    44   21   22 ar
    45   21   49 1
    46   22   23 ar
    47   22   50 1
    48   23   24 1
    49   24   25 2
    50   24   26 am
    51   26   27 1
    52   26   28 1
    53   28   51 1
    54   28   52 1
    55   28   53 1
@<TRIPOS>MOLECULE
ZINC55888349
   53    55     0     0     0
SMALL
USER_CHARGES

@<TRIPOS>ATOM
      1 C1         -1.2911    1.2544    0.1180 C.3       1 <0>        -0.1292
      2 C2         -0.5768   -0.0695    0.0285 C.ar      1 <0>        -0.0408
      3 C3         -0.1892   -0.5681   -1.2085 C.ar      1 <0>         0.1332
      4 C4          0.4692   -1.7881   -1.2866 C.ar      1 <0>        -0.0682
      5 C5          0.7366   -2.5020   -0.1347 C.ar      1 <0>        -0.1019
      6 C6          0.3489   -2.0031    1.0951 C.ar      1 <0>        -0.0578
      7 C7         -0.3019   -0.7855    1.1768 C.ar      1 <0>        -0.0293
      8 N1         -0.7093   -0.2520    2.4960 N.pl3     1 <0>         0.0289
      9 O1         -0.8124    0.9414    2.6598 O.2       1 <0>        -0.1439
     10 O2         -0.9389   -1.0097    3.4098 O.3       1 <0>        -0.1474
     11 N2         -0.4619    0.1573   -2.3736 N.am      1 <0>        -0.6562
     12 C8         -0.7508   -0.4913   -3.5191 C.2       1 <0>         0.5149
     13 O3         -0.7097   -1.7029   -3.5570 O.2       1 <0>        -0.5192
     14 C9         -1.1248    0.2888   -4.7530 C.3       1 <0>         0.1021
     15 N3         -1.3900   -0.6388   -5.8555 N.pl3     1 <0>        -0.7359
     16 C10        -1.7574   -0.1460   -7.1097 C.ar      1 <0>         0.2500
     17 C11        -1.7644    1.2233   -7.3451 C.ar      1 <0>        -0.1751
     18 C12        -2.1277    1.7070   -8.5863 C.ar      1 <0>        -0.0216
     19 C13        -2.4849    0.8303   -9.5945 C.ar      1 <0>        -0.1443
     20 C14        -2.4795   -0.5329   -9.3636 C.ar      1 <0>        -0.0452
     21 C15        -2.1111   -1.0239   -8.1262 C.ar      1 <0>        -0.1290
     22 N4         -2.0999   -2.4027   -7.8954 N.4       1 <0>        -0.3115
     23 C16        -3.4191   -2.9615   -8.2149 C.3       1 <0>        -0.0021
     24 C17        -3.4371   -4.4561   -7.8873 C.3       1 <0>        -0.1450
     25 C18        -2.3648   -5.1679   -8.7173 C.3       1 <0>         0.0971
     26 C19        -1.0034   -4.5274   -8.4316 C.3       1 <0>        -0.1850
     27 C20        -1.0757   -3.0302   -8.7389 C.3       1 <0>        -0.0030
     28 O4         -2.3260   -6.5515   -8.3622 O.3       1 <0>        -0.5520
     29 H1         -0.5691    2.0433    0.3289 H         1 <0>         0.1001
     30 H2         -1.7905    1.4625   -0.8283 H         1 <0>         0.0711
     31 H3         -2.0304    1.2151    0.9180 H         1 <0>         0.0894
     32 H4          0.7716   -2.1787   -2.2471 H         1 <0>         0.1556
     33 H5          1.2486   -3.4510   -0.1948 H         1 <0>         0.1548
     34 H6          0.5585   -2.5635    1.9943 H         1 <0>         0.1568
     35 H7         -0.4430    1.1270   -2.3567 H         1 <0>         0.4220
     36 H8         -2.0186    0.8796   -4.5523 H         1 <0>         0.1139
     37 H9         -0.3044    0.9525   -5.0259 H         1 <0>         0.1138
     38 H10        -1.3104   -1.5951   -5.7145 H         1 <0>         0.4022
     39 H11        -1.4863    1.9085   -6.5580 H         1 <0>         0.1468
     40 H12        -2.1334    2.7713   -8.7699 H         1 <0>         0.1479
     41 H13        -2.7690    1.2113  -10.5643 H         1 <0>         0.1475
     42 H14        -2.7596   -1.2148  -10.1529 H         1 <0>         0.1435
     43 H15        -4.1815   -2.4517   -7.6258 H         1 <0>         0.1373
     44 H16        -3.6259   -2.8199   -9.2757 H         1 <0>         0.1338
     45 H17        -3.2306   -4.5988   -6.8266 H         1 <0>         0.0954
     46 H18        -4.4168   -4.8695   -8.1269 H         1 <0>         0.1228
     47 H19        -2.5990   -5.0689   -9.7773 H         1 <0>         0.0754
     48 H20        -0.7464   -4.6716   -7.3822 H         1 <0>         0.0961
     49 H21        -0.2436   -4.9918   -9.0602 H         1 <0>         0.1175
     50 H22        -1.3324   -2.8872   -9.7886 H         1 <0>         0.1330
     51 H23        -0.1079   -2.5711   -8.5368 H         1 <0>         0.1325
     52 H24        -1.6675   -7.0645   -8.8504 H         1 <0>         0.3942
     53 H25        -1.8886   -2.5785   -6.9246 H         1 <0>         0.4141
@<TRIPOS>BOND
     1    1    2 1
     2    1   29 1
     3    1   30 1
     4    1   31 1
     5    2    7 ar
     6    2    3 ar
     7    3    4 ar
     8    3   11 1
     9    4    5 ar
    10    4   32 1
    11    5    6 ar
    12    5   33 1
    13    6    7 ar
    14    6   34 1
    15    7    8 1
    16    8    9 2
    17    8   10 1
    18   11   12 am
    19   11   35 1
    20   12   13 2
    21   12   14 1
    22   14   15 1
    23   14   36 1
    24   14   37 1
    25   15   16 1
    26   15   38 1
    27   16   21 ar
    28   16   17 ar
    29   17   18 ar
    30   17   39 1
    31   18   19 ar
    32   18   40 1
    33   19   20 ar
    34   19   41 1
    35   20   21 ar
    36   20   42 1
    37   21   22 1
    38   22   27 1
    39   22   23 1
    40   22   53 1
    41   23   24 1
    42   23   43 1
    43   23   44 1
    44   24   25 1
    45   24   45 1
    46   24   46 1
    47   25   26 1
    48   25   28 1
    49   25   47 1
    50   26   27 1
    51   26   48 1
    52   26   49 1
    53   27   50 1
    54   27   51 1
    55   28   52 1
@<TRIPOS>MOLECULE
ZINC63511529
   53    55     0     0     0
SMALL
USER_CHARGES

@<TRIPOS>ATOM
      1 C1          0.0248    1.5032    0.0055 C.3       1 <0>        -0.1195
      2 C2          0.0338   -0.0037   -0.0015 C.ar      1 <0>        -0.0813
      3 C3          0.6317   -0.6854   -1.0459 C.ar      1 <0>        -0.1078
      4 C4          0.6415   -2.0662   -1.0553 C.ar      1 <0>        -0.1076
      5 C5          0.0506   -2.7705   -0.0142 C.ar      1 <0>         0.1315
      6 C6         -0.5484   -2.0832    1.0331 C.ar      1 <0>        -0.0976
      7 C7         -0.5507   -0.7019    1.0389 C.ar      1 <0>        -0.1037
      8 C8         -1.1907   -2.8434    2.1647 C.3       1 <0>        -0.1168
      9 N1          0.0586   -4.1698   -0.0209 N.am      1 <0>        -0.6633
     10 C9         -0.0404   -4.8387   -1.1868 C.2       1 <0>         0.6929
     11 O1         -0.0542   -4.2288   -2.2380 O.2       1 <0>        -0.4992
     12 N2         -0.1241   -6.1838   -1.1870 N.am      1 <0>        -0.6737
     13 C10        -0.2231   -6.8527   -2.3529 C.2       1 <0>         0.5150
     14 O2         -0.2368   -6.2443   -3.4015 O.2       1 <0>        -0.4540
     15 C11        -0.3167   -8.3568   -2.3532 C.3       1 <0>        -0.0482
     16 N3         -0.4149   -8.8410   -3.7366 N.4       1 <0>        -0.4847
     17 C12        -0.5061  -10.3072   -3.7368 C.3       1 <0>         0.1559
     18 C13        -1.7919  -10.7568   -3.0127 C.3       1 <0>        -0.1292
     19 C14        -2.8184  -10.9628   -4.1542 C.3       1 <0>        -0.1347
     20 C15        -1.9547  -11.5769   -5.2838 C.3       1 <0>        -0.1256
     21 C16        -0.6096  -10.8287   -5.1808 C.3       1 <0>        -0.1428
     22 C17         0.7029  -10.8994   -3.0595 C.2       1 <0>         0.2071
     23 N4          1.0762  -10.6708   -1.7954 N.2       1 <0>        -0.5653
     24 C18         2.1647  -11.3354   -1.5229 C.2       1 <0>         0.3322
     25 O3          2.5247  -12.0174   -2.6175 O.3       1 <0>        -0.0715
     26 N5          1.5511  -11.7213   -3.6077 N.2       1 <0>        -0.2845
     27 C19         2.8921  -11.3359   -0.2031 C.3       1 <0>        -0.0880
     28 H1          0.9178    1.8695    0.5120 H         1 <0>         0.0747
     29 H2          0.0123    1.8713   -1.0204 H         1 <0>         0.0695
     30 H3         -0.8621    1.8588    0.5300 H         1 <0>         0.0694
     31 H4          1.0910   -0.1371   -1.8551 H         1 <0>         0.1289
     32 H5          1.1080   -2.5980   -1.8714 H         1 <0>         0.1384
     33 H6         -1.0128   -0.1667    1.8553 H         1 <0>         0.1308
     34 H7         -0.4527   -3.0238    2.9463 H         1 <0>         0.0748
     35 H8         -2.0162   -2.2598    2.5721 H         1 <0>         0.0762
     36 H9         -1.5678   -3.7966    1.7941 H         1 <0>         0.0599
     37 H10         0.1353   -4.6584    0.8135 H         1 <0>         0.4113
     38 H11        -0.1131   -6.6706   -0.3481 H         1 <0>         0.4205
     39 H12         0.5731   -8.7762   -1.8837 H         1 <0>         0.1880
     40 H13        -1.2013   -8.6658   -1.7964 H         1 <0>         0.1734
     41 H14        -1.2385   -8.4527   -4.1712 H         1 <0>         0.4446
     42 H15        -1.6221  -11.6918   -2.4790 H         1 <0>         0.1166
     43 H16        -2.1344   -9.9818   -2.3270 H         1 <0>         0.1012
     44 H17        -3.6028  -11.6550   -3.8480 H         1 <0>         0.1016
     45 H18        -3.2438  -10.0096   -4.4680 H         1 <0>         0.0840
     46 H19        -1.8112  -12.6444   -5.1168 H         1 <0>         0.0883
     47 H20        -2.4160  -11.4004   -6.2555 H         1 <0>         0.0975
     48 H21        -0.5921   -9.9938   -5.8814 H         1 <0>         0.1042
     49 H22         0.2142  -11.5107   -5.3914 H         1 <0>         0.1184
     50 H23         2.5014  -12.1351    0.4268 H         1 <0>         0.1232
     51 H24         3.9565  -11.4960   -0.3749 H         1 <0>         0.1133
     52 H25         2.7445  -10.3769    0.2935 H         1 <0>         0.1181
     53 H26         0.4040   -8.5549   -4.2520 H         1 <0>         0.4376
@<TRIPOS>BOND
     1    1    2 1
     2    1   28 1
     3    1   29 1
     4    1   30 1
     5    2    7 ar
     6    2    3 ar
     7    3    4 ar
     8    3   31 1
     9    4    5 ar
    10    4   32 1
    11    5    6 ar
    12    5    9 1
    13    6    7 ar
    14    6    8 1
    15    7   33 1
    16    8   34 1
    17    8   35 1
    18    8   36 1
    19    9   10 am
    20    9   37 1
    21   10   11 2
    22   10   12 am
    23   12   13 am
    24   12   38 1
    25   13   14 2
    26   13   15 1
    27   15   16 1
    28   15   39 1
    29   15   40 1
    30   16   17 1
    31   16   41 1
    32   16   53 1
    33   17   21 1
    34   17   18 1
    35   17   22 1
    36   18   19 1
    37   18   42 1
    38   18   43 1
    39   19   20 1
    40   19   44 1
    41   19   45 1
    42   20   21 1
    43   20   46 1
    44   20   47 1
    45   21   48 1
    46   21   49 1
    47   22   26 2
    48   22   23 1
    49   23   24 2
    50   24   25 1
    51   24   27 1
    52   25   26 1
    53   27   50 1
    54   27   51 1
    55   27   52 1
@<TRIPOS>MOLECULE
ZINC64886570
   45    47     0     0     0
SMALL
USER_CHARGES

@<TRIPOS>ATOM
      1 C1         -0.0167    1.3793    0.0096 C.ar      1 <0>        -0.0975
      2 C2          1.1684    2.0931    0.0021 C.ar      1 <0>        -0.1113
      3 C3          2.3774    1.4285   -0.0130 C.ar      1 <0>        -0.0904
      4 C4          2.4031    0.0335   -0.0208 C.ar      1 <0>        -0.0164
      5 C5          1.2045   -0.6805   -0.0131 C.ar      1 <0>        -0.0757
      6 C6          0.0021   -0.0041    0.0020 C.ar      1 <0>        -0.1222
      7 C7          3.6958   -0.6854   -0.0375 C.2       1 <0>         0.1090
      8 N1          3.9256   -1.9857   -0.0521 N.2       1 <0>        -0.4694
      9 C8          5.1833   -2.4051   -0.0656 C.2       1 <0>        -0.0127
     10 C9          6.1936   -1.4801   -0.0638 C.2       1 <0>        -0.1888
     11 S1          5.3521   -0.0225   -0.0510 S.3       1 <0>         0.2077
     12 C10         5.4899   -3.8458   -0.0817 C.2       1 <0>         0.5982
     13 O1          6.6468   -4.2213   -0.0936 O.2       1 <0>        -0.5172
     14 N2          4.4886   -4.7479   -0.0834 N.am      1 <0>        -0.5178
     15 N3          4.7802   -6.1182   -0.0988 N.am      1 <0>        -0.5261
     16 C11         3.7789   -7.0203   -0.1005 C.2       1 <0>         0.7170
     17 O2          4.0320   -8.2094   -0.1138 O.2       1 <0>        -0.5611
     18 N4          2.4970   -6.6042   -0.0873 N.am      1 <0>        -0.7484
     19 C12         1.4086   -7.5848   -0.0892 C.3       1 <0>         0.1392
     20 C13         0.0642   -6.8546   -0.0726 C.3       1 <0>        -0.1560
     21 C14        -1.0725   -7.8787   -0.0745 C.3       1 <0>         0.0955
     22 N5         -2.3597   -7.1794   -0.0586 N.pl3     1 <0>        -0.4082
     23 C15        -3.0628   -6.7972    1.0520 C.2       1 <0>         0.0260
     24 C16        -4.1816   -6.1886    0.6145 C.2       1 <0>         0.0044
     25 N6         -4.1623   -6.1990   -0.7266 N.pl3     1 <0>        -0.4760
     26 C17        -3.0715   -6.7864   -1.1368 C.cat     1 <0>         0.2890
     27 H1         -0.9604    1.9041    0.0260 H         1 <0>         0.1304
     28 H2          1.1471    3.1729    0.0078 H         1 <0>         0.1357
     29 H3          3.3018    1.9868   -0.0192 H         1 <0>         0.1304
     30 H4          1.2178   -1.7604   -0.0194 H         1 <0>         0.1294
     31 H5         -0.9265   -0.5556    0.0083 H         1 <0>         0.1269
     32 H6          7.2610   -1.6446   -0.0733 H         1 <0>         0.2154
     33 H7          3.5660   -4.4485   -0.0740 H         1 <0>         0.4256
     34 H8          5.7028   -6.4176   -0.1082 H         1 <0>         0.4483
     35 H9          2.2951   -5.6555   -0.0767 H         1 <0>         0.3945
     36 H10         1.4763   -8.2011   -0.9857 H         1 <0>         0.0812
     37 H11         1.4889   -8.2184    0.7942 H         1 <0>         0.0814
     38 H12        -0.0034   -6.2383    0.8239 H         1 <0>         0.0899
     39 H13        -0.0160   -6.2210   -0.9559 H         1 <0>         0.0878
     40 H14        -1.0048   -8.4949   -0.9710 H         1 <0>         0.1282
     41 H15        -0.9922   -8.5122    0.8089 H         1 <0>         0.1309
     42 H16        -2.7755   -6.9538    2.0812 H         1 <0>         0.2234
     43 H17        -4.9583   -5.7663    1.2347 H         1 <0>         0.2241
     44 H18        -2.7866   -6.9358   -2.1678 H         1 <0>         0.2602
     45 H19        -4.8490   -5.8255   -1.3010 H         1 <0>         0.4658
@<TRIPOS>BOND
     1    1    6 ar
     2    1    2 ar
     3    1   27 1
     4    2    3 ar
     5    2   28 1
     6    3    4 ar
     7    3   29 1
     8    4    5 ar
     9    4    7 1
    10    5    6 ar
    11    5   30 1
    12    6   31 1
    13    7   11 1
    14    7    8 2
    15    8    9 1
    16    9   10 2
    17    9   12 1
    18   10   11 1
    19   10   32 1
    20   12   13 2
    21   12   14 am
    22   14   15 1
    23   14   33 1
    24   15   16 am
    25   15   34 1
    26   16   17 2
    27   16   18 am
    28   18   19 1
    29   18   35 1
    30   19   20 1
    31   19   36 1
    32   19   37 1
    33   20   21 1
    34   20   38 1
    35   20   39 1
    36   21   22 1
    37   21   40 1
    38   21   41 1
    39   22   26 1
    40   22   23 1
    41   23   24 2
    42   23   42 1
    43   24   25 1
    44   24   43 1
    45   25   26 2
    46   25   45 1
    47   26   44 1
@<TRIPOS>MOLECULE
ZINC67189104
   53    55     0     0     0
SMALL
USER_CHARGES

@<TRIPOS>ATOM
      1 C1          0.1620    1.5387   -0.0843 C.3       1 <0>        -0.1781
      2 C2          0.0003    0.0204    0.0132 C.3       1 <0>         0.0845
      3 H1          0.4158   -0.4473   -0.8794 H         1 <0>         0.1470
      4 C3          0.7296   -0.4853    1.2311 C.ar      1 <0>        -0.1679
      5 C4          0.1429   -0.3820    2.4790 C.ar      1 <0>        -0.0972
      6 C5          0.8087   -0.8446    3.5972 C.ar      1 <0>        -0.1117
      7 C6          2.0687   -1.4138    3.4673 C.ar      1 <0>         0.2028
      8 C7          2.6551   -1.5160    2.2127 C.ar      1 <0>        -0.1401
      9 C8          1.9817   -1.0567    1.0977 C.ar      1 <0>        -0.0606
     10 N1          2.7461   -1.8830    4.5983 N.am      1 <0>        -0.6888
     11 C9          2.0544   -2.4122    5.6269 C.2       1 <0>         0.7099
     12 O1          0.8526   -2.5711    5.5335 O.2       1 <0>        -0.5691
     13 N2          2.6949   -2.7654    6.7589 N.am      1 <0>        -0.7063
     14 C10         1.9430   -3.3407    7.8770 C.3       1 <0>         0.0890
     15 C11         2.2703   -2.8344    9.2832 C.3       1 <0>        -0.1898
     16 C12         2.7058   -4.2370    8.8544 C.3       1 <0>        -0.1855
     17 N3         -1.4260   -0.3140    0.1225 N.4       1 <0>        -0.5098
     18 C13        -2.1157    0.0716   -1.1159 C.3       1 <0>         0.0815
     19 C14        -3.5788   -0.2715   -1.0037 C.2       1 <0>        -0.3593
     20 C15        -4.4715    0.6603   -0.6066 C.2       1 <0>         0.2477
     21 N4         -5.7964    0.3319   -0.5101 N.am      1 <0>        -0.5252
     22 C16        -6.2177   -0.9109   -0.8068 C.2       1 <0>         0.6858
     23 O2         -7.3994   -1.1813   -0.7139 O.2       1 <0>        -0.5036
     24 N5         -5.3494   -1.8590   -1.2055 N.am      1 <0>        -0.5497
     25 C17        -4.0364   -1.5737   -1.3190 C.2       1 <0>         0.5558
     26 O3         -3.2509   -2.4294   -1.6846 O.2       1 <0>        -0.5079
     27 C18        -5.8336   -3.2048   -1.5228 C.3       1 <0>         0.0731
     28 C19        -6.7651    1.3429   -0.0792 C.3       1 <0>         0.0648
     29 H2          1.2203    1.7869   -0.1654 H         1 <0>         0.1076
     30 H3         -0.3655    1.9045   -0.9652 H         1 <0>         0.0839
     31 H4         -0.2535    2.0064    0.8083 H         1 <0>         0.0820
     32 H5         -0.8369    0.0611    2.5794 H         1 <0>         0.1207
     33 H6          0.3501   -0.7633    4.5716 H         1 <0>         0.1471
     34 H7          3.6350   -1.9580    2.1084 H         1 <0>         0.1392
     35 H8          2.4354   -1.1400    0.1212 H         1 <0>         0.1389
     36 H9          3.7135   -1.8273    4.6421 H         1 <0>         0.4142
     37 H10         3.6537   -2.6387    6.8334 H         1 <0>         0.4026
     38 H11         0.9056   -3.5978    7.6630 H         1 <0>         0.1419
     39 H12         3.0450   -2.0734    9.3765 H         1 <0>         0.0990
     40 H13         1.4480   -2.7583    9.9947 H         1 <0>         0.1071
     41 H14         2.1702   -5.0837    9.2839 H         1 <0>         0.1089
     42 H15         3.7671   -4.3987    8.6657 H         1 <0>         0.0998
     43 H16        -1.5283   -1.3070    0.2693 H         1 <0>         0.4337
     44 H17        -2.0051    1.1443   -1.2744 H         1 <0>         0.1440
     45 H18        -1.6797   -0.4669   -1.9573 H         1 <0>         0.1483
     46 H19        -4.1414    1.6601   -0.3659 H         1 <0>         0.1909
     47 H20        -6.9132   -3.2459   -1.3782 H         1 <0>         0.1065
     48 H21        -5.5967   -3.4410   -2.5602 H         1 <0>         0.0880
     49 H22        -5.3512   -3.9287   -0.8660 H         1 <0>         0.0872
     50 H23        -7.1464    1.8754   -0.9506 H         1 <0>         0.0909
     51 H24        -7.5911    0.8568    0.4397 H         1 <0>         0.1069
     52 H25        -6.2784    2.0489    0.5937 H         1 <0>         0.1005
     53 H26        -1.8296    0.1844    0.9014 H         1 <0>         0.4187
@<TRIPOS>BOND
     1    1    2 1
     2    1   29 1
     3    1   30 1
     4    1   31 1
     5    2    3 1
     6    2    4 1
     7    2   17 1
     8    4    9 ar
     9    4    5 ar
    10    5    6 ar
    11    5   32 1
    12    6    7 ar
    13    6   33 1
    14    7    8 ar
    15    7   10 1
    16    8    9 ar
    17    8   34 1
    18    9   35 1
    19   10   11 am
    20   10   36 1
    21   11   12 2
    22   11   13 am
    23   13   14 1
    24   13   37 1
    25   14   16 1
    26   14   15 1
    27   14   38 1
    28   15   16 1
    29   15   39 1
    30   15   40 1
    31   16   41 1
    32   16   42 1
    33   17   18 1
    34   17   43 1
    35   17   53 1
    36   18   19 1
    37   18   44 1
    38   18   45 1
    39   19   25 1
    40   19   20 2
    41   20   21 1
    42   20   46 1
    43   21   22 am
    44   21   28 1
    45   22   23 2
    46   22   24 am
    47   24   25 am
    48   24   27 1
    49   25   26 2
    50   27   47 1
    51   27   48 1
    52   27   49 1
    53   28   50 1
    54   28   51 1
    55   28   52 1
@<TRIPOS>MOLECULE
ZINC16927259
   45    46     0     0     0
SMALL
USER_CHARGES
N-carbamoyl-2-[[4-(4-chlorophenyl)-5-[(1R)-1-dimethylaminoethyl]-1,2,4-triazol-3-yl]sulfanyl]acetamide
@<TRIPOS>ATOM
      1 C1          4.0503    0.0999    1.3564 C.3       1 <0>        -0.1756
      2 C2          3.5461    0.5063   -0.0298 C.3       1 <0>         0.1348
      3 H1          3.9571    1.4805   -0.2948 H         1 <0>         0.1484
      4 C3          2.0412    0.5833   -0.0143 C.2       1 <0>         0.1223
      5 N1          1.2161   -0.4254   -0.0118 N.2       1 <0>        -0.2489
      6 N2          0.0021   -0.0041    0.0020 N.2       1 <0>        -0.2784
      7 C4         -0.0157    1.3088    0.0092 C.2       1 <0>         0.1816
      8 N3          1.2868    1.7264   -0.0010 N.pl3     1 <0>        -0.3945
      9 C5          1.7528    3.0496    0.0017 C.ar      1 <0>         0.0758
     10 C6          2.4567    3.5409   -1.0892 C.ar      1 <0>        -0.0937
     11 C7          2.9095    4.8457   -1.0867 C.ar      1 <0>        -0.0925
     12 C8          2.6722    5.6595    0.0071 C.ar      1 <0>        -0.0099
     13 C9          1.9753    5.1703    1.0979 C.ar      1 <0>        -0.0868
     14 C10         1.5156    3.8679    1.0976 C.ar      1 <0>        -0.0764
     15 Cl1         3.2493    7.2968    0.0106 Cl        1 <0>        -0.0315
     16 S1         -1.4462    2.3375    0.0219 S.3       1 <0>         0.1312
     17 C11        -2.7421    1.0739    0.0222 C.3       1 <0>        -0.1597
     18 C12        -4.0936    1.7404    0.0327 C.2       1 <0>         0.5389
     19 O1         -4.1729    2.9501    0.0392 O.2       1 <0>        -0.4468
     20 N4         -5.2143    0.9916    0.0347 N.am      1 <0>        -0.6834
     21 C13        -6.4230    1.5877    0.0440 C.2       1 <0>         0.6973
     22 O2         -6.5024    2.8005    0.0506 O.2       1 <0>        -0.5261
     23 N5         -7.5436    0.8390    0.0461 N.am      1 <0>        -0.8517
     24 C14         5.4385   -0.5102   -1.1471 C.3       1 <0>        -0.0462
     25 C15         3.4594   -1.8245   -0.6797 C.3       1 <0>        -0.0684
     26 H2          3.7320    0.8403    2.0902 H         1 <0>         0.1058
     27 H3          3.6394   -0.8742    1.6213 H         1 <0>         0.0948
     28 H4          5.1388    0.0443    1.3451 H         1 <0>         0.0975
     29 H5          2.6462    2.9047   -1.9410 H         1 <0>         0.1383
     30 H6          3.4537    5.2296   -1.9369 H         1 <0>         0.1541
     31 H7          1.7910    5.8074    1.9503 H         1 <0>         0.1564
     32 H8          0.9723    3.4864    1.9494 H         1 <0>         0.1475
     33 H9         -2.6481    0.4569   -0.8714 H         1 <0>         0.1392
     34 H10        -2.6389    0.4478    0.9085 H         1 <0>         0.1397
     35 H11        -5.1509    0.0237    0.0295 H         1 <0>         0.4153
     36 H12        -7.4802   -0.1289    0.0408 H         1 <0>         0.4022
     37 H13        -8.4136    1.2680    0.0528 H         1 <0>         0.4255
     38 H14         5.8845   -0.7585   -0.1841 H         1 <0>         0.1284
     39 H15         5.7289   -1.2575   -1.8855 H         1 <0>         0.1307
     40 H16         5.7877    0.4715   -1.4670 H         1 <0>         0.1225
     41 H17         2.3699   -1.7983   -0.6597 H         1 <0>         0.1530
     42 H18         3.7919   -2.5440   -1.4280 H         1 <0>         0.1232
     43 H19         3.8337   -2.1204    0.3003 H         1 <0>         0.1251
     44 N6          3.9642   -0.4840   -1.0443 N.4       1 <0>        -0.3901
     45 H20         3.5712   -0.2157   -1.9541 H         1 <0>         0.4313
@<TRIPOS>BOND
     1    1    2 1
     2    1   26 1
     3    1   27 1
     4    1   28 1
     5    2    3 1
     6    2    4 1
     7    2   44 1
     8    4    8 1
     9    4    5 2
    10    5    6 1
    11    6    7 2
    12    7    8 1
    13    7   16 1
    14    8    9 1
    15    9   14 ar
    16    9   10 ar
    17   10   11 ar
    18   10   29 1
    19   11   12 ar
    20   11   30 1
    21   12   13 ar
    22   12   15 1
    23   13   14 ar
    24   13   31 1
    25   14   32 1
    26   16   17 1
    27   17   18 1
    28   17   33 1
    29   17   34 1
    30   18   19 2
    31   18   20 am
    32   20   21 am
    33   20   35 1
    34   21   22 2
    35   21   23 am
    36   23   36 1
    37   23   37 1
    38   24   38 1
    39   24   39 1
    40   24   40 1
    41   24   44 1
    42   25   41 1
    43   25   42 1
    44   25   43 1
    45   25   44 1
    46   44   45 1
@<TRIPOS>MOLECULE
ZINC46254777
   62    63     0     0     0
SMALL
USER_CHARGES

@<TRIPOS>ATOM
      1 C1         -0.5221   -0.2677   -2.3219 C.3       1 <0>        -0.0774
      2 C2         -0.2160   -1.7056   -1.9907 C.2       1 <0>         0.0910
      3 C3          0.2170   -2.6812   -2.8947 C.2       1 <0>        -0.2599
      4 C4          0.3806   -3.8380   -2.2121 C.2       1 <0>         0.0936
      5 N1          0.0625   -3.6029   -0.9219 N.pl3     1 <0>        -0.3714
      6 N2         -0.3040   -2.2557   -0.8069 N.2       1 <0>        -0.2906
      7 C5          0.0991   -4.5821    0.1671 C.3       1 <0>         0.1329
      8 C6          1.4622   -4.5680    0.8097 C.2       1 <0>         0.4954
      9 O1          2.3187   -3.8142    0.3986 O.2       1 <0>        -0.4887
     10 N3          1.7294   -5.3931    1.8414 N.am      1 <0>        -0.5377
     11 N4          2.9965   -5.3799    2.4388 N.am      1 <0>        -0.5212
     12 C7          3.2637   -6.2050    3.4705 C.2       1 <0>         0.7131
     13 O2          4.3635   -6.1936    3.9890 O.2       1 <0>        -0.5469
     14 N5          2.3119   -7.0427    3.9274 N.am      1 <0>        -0.7619
     15 C8          2.6024   -7.9395    5.0488 C.3       1 <0>         0.1077
     16 C9          1.3127   -8.6303    5.4967 C.3       1 <0>         0.0159
     17 H1          0.7957   -9.0342    4.6262 H         1 <0>         0.1455
     18 C10         1.6522   -9.7681    6.4616 C.3       1 <0>        -0.1093
     19 C11         0.3632  -10.4645    6.9025 C.3       1 <0>        -0.1682
     20 C12         2.5628  -10.7775    5.7597 C.3       1 <0>        -0.1574
     21 N6          0.4454   -7.6568    6.1733 N.4       1 <0>        -0.3778
     22 C13         0.0804   -6.5915    5.2318 C.3       1 <0>        -0.0364
     23 C14        -0.8880   -5.6182    5.9074 C.3       1 <0>        -0.1403
     24 C15        -0.2120   -5.0052    7.1372 C.3       1 <0>        -0.1044
     25 C16         0.2309   -6.1297    8.0777 C.3       1 <0>        -0.1400
     26 C17         1.1579   -7.0840    7.3217 C.3       1 <0>        -0.0216
     27 C18        -1.2017   -4.0914    7.8628 C.3       1 <0>        -0.1535
     28 C19         0.8361   -5.1535   -2.7893 C.3       1 <0>        -0.0953
     29 H2          0.3821    0.3310   -2.2117 H         1 <0>         0.0806
     30 H3         -0.8798   -0.1997   -3.3493 H         1 <0>         0.0818
     31 H4         -1.2899    0.1057   -1.6444 H         1 <0>         0.0742
     32 H5          0.3896   -2.5368   -3.9510 H         1 <0>         0.1522
     33 H6         -0.6558   -4.3269    0.9107 H         1 <0>         0.1307
     34 H7         -0.1045   -5.5761   -0.2311 H         1 <0>         0.1284
     35 H8          1.0443   -5.9960    2.1703 H         1 <0>         0.4126
     36 H9          3.6816   -4.7770    2.1100 H         1 <0>         0.4525
     37 H10         1.4346   -7.0518    3.5138 H         1 <0>         0.3918
     38 H11         3.3269   -8.6910    4.7349 H         1 <0>         0.1208
     39 H12         3.0128   -7.3633    5.8781 H         1 <0>         0.1035
     40 H13         2.1636   -9.3634    7.3350 H         1 <0>         0.1013
     41 H14        -0.1084  -10.9357    6.0402 H         1 <0>         0.0761
     42 H15         0.5975  -11.2239    7.6486 H         1 <0>         0.0895
     43 H16        -0.3176   -9.7301    7.3329 H         1 <0>         0.0501
     44 H17         3.4811  -10.2814    5.4455 H         1 <0>         0.0723
     45 H18         2.8047  -11.5881    6.4471 H         1 <0>         0.0828
     46 H19         2.0515  -11.1822    4.8863 H         1 <0>         0.0701
     47 H20         0.9783   -6.0553    4.9246 H         1 <0>         0.1417
     48 H21        -0.3977   -7.0296    4.3557 H         1 <0>         0.1257
     49 H22        -1.1564   -4.8270    5.2073 H         1 <0>         0.1130
     50 H23        -1.7865   -6.1533    6.2148 H         1 <0>         0.0902
     51 H24         0.6578   -4.4274    6.8249 H         1 <0>         0.0879
     52 H25         0.7624   -5.7041    8.9289 H         1 <0>         0.1144
     53 H26        -0.6443   -6.6754    8.4301 H         1 <0>         0.0892
     54 H27         1.4753   -7.8858    7.9884 H         1 <0>         0.1364
     55 H28         2.0329   -6.5374    6.9700 H         1 <0>         0.1325
     56 H29        -2.0689   -4.6720    8.1772 H         1 <0>         0.0626
     57 H30        -0.7195   -3.6557    8.7379 H         1 <0>         0.0685
     58 H31        -1.5216   -3.2956    7.1903 H         1 <0>         0.0677
     59 H32         1.9228   -5.2179   -2.7337 H         1 <0>         0.0824
     60 H33         0.3940   -5.9720   -2.2213 H         1 <0>         0.0662
     61 H34         0.5209   -5.2220   -3.8305 H         1 <0>         0.0920
     62 H35        -0.3914   -8.1199    6.4949 H         1 <0>         0.4230
@<TRIPOS>BOND
     1    1    2 1
     2    1   29 1
     3    1   30 1
     4    1   31 1
     5    2    6 2
     6    2    3 1
     7    3    4 2
     8    3   32 1
     9    4    5 1
    10    4   28 1
    11    5    6 1
    12    5    7 1
    13    7    8 1
    14    7   33 1
    15    7   34 1
    16    8    9 2
    17    8   10 am
    18   10   11 1
    19   10   35 1
    20   11   12 am
    21   11   36 1
    22   12   13 2
    23   12   14 am
    24   14   15 1
    25   14   37 1
    26   15   16 1
    27   15   38 1
    28   15   39 1
    29   16   17 1
    30   16   18 1
    31   16   21 1
    32   18   19 1
    33   18   20 1
    34   18   40 1
    35   19   41 1
    36   19   42 1
    37   19   43 1
    38   20   44 1
    39   20   45 1
    40   20   46 1
    41   21   26 1
    42   21   22 1
    43   21   62 1
    44   22   23 1
    45   22   47 1
    46   22   48 1
    47   23   24 1
    48   23   49 1
    49   23   50 1
    50   24   25 1
    51   24   27 1
    52   24   51 1
    53   25   26 1
    54   25   52 1
    55   25   53 1
    56   26   54 1
    57   26   55 1
    58   27   56 1
    59   27   57 1
    60   27   58 1
    61   28   59 1
    62   28   60 1
    63   28   61 1
@<TRIPOS>MOLECULE
ZINC27865314
   62    65     0     0     0
SMALL
USER_CHARGES

@<TRIPOS>ATOM
      1 C1         -0.7928    1.3187   -0.9298 C.3       1 <0>        -0.1462
      2 C2         -0.6929   -0.1843   -0.8860 C.ar      1 <0>         0.1901
      3 C3         -0.4612   -0.8861   -2.0522 C.ar      1 <0>        -0.1240
      4 C4         -0.3701   -2.2707   -2.0060 C.ar      1 <0>         0.0496
      5 C5         -0.5160   -2.9016   -0.7835 C.ar      1 <0>        -0.1961
      6 C6         -0.7477   -2.1317    0.3516 C.ar      1 <0>         0.4540
      7 N1         -0.8227   -0.8122    0.2671 N.ar      1 <0>        -0.5000
      8 N2         -0.8966   -2.7525    1.5864 N.pl3     1 <0>        -0.8209
      9 C7         -0.3093   -0.1566   -3.3621 C.3       1 <0>        -0.1334
     10 C8          1.1197    0.2941   -3.5233 C.2       1 <0>         0.3427
     11 O1          1.9310    0.0483   -2.6632 O.2       1 <0>        -0.4294
     12 C9          1.5363    1.0515   -4.7577 C.3       1 <0>         0.0623
     13 N3          2.9631    1.3731   -4.6750 N.am      1 <0>        -0.5888
     14 C10         3.3934    2.6331   -4.0473 C.3       1 <0>         0.0920
     15 C11         4.0369    2.3125   -2.6969 C.3       1 <0>        -0.1503
     16 C12         5.5122    1.9963   -2.8621 C.3       1 <0>        -0.1277
     17 C13         5.7819    0.7107   -3.6228 C.3       1 <0>        -0.1174
     18 C14         5.3413    0.8420   -5.0827 C.3       1 <0>         0.1371
     19 H1          5.9042    0.1413   -5.6995 H         1 <0>         0.1327
     20 C15         3.8640    0.5199   -5.1642 C.2       1 <0>         0.5112
     21 O2          3.4985   -0.5152   -5.6798 O.2       1 <0>        -0.5268
     22 N4          5.5812    2.2102   -5.5482 N.pl3     1 <0>        -1.1116
     23 S1          5.9260    2.4938   -7.1429 S.o2      1 <0>         2.6880
     24 O3          6.0779    3.8998   -7.2817 O.2       1 <0>        -0.9486
     25 O4          6.9495    1.5774   -7.5063 O.2       1 <0>        -0.9454
     26 C16         4.4971    2.0474   -8.0722 C.ar      1 <0>        -0.7128
     27 C17         4.3503    0.7548   -8.5411 C.ar      1 <0>         0.0283
     28 C18         3.2318    0.3990   -9.2655 C.ar      1 <0>        -0.1512
     29 C19         2.2401    1.3400   -9.5321 C.ar      1 <0>         0.1682
     30 C20         2.4023    2.6368   -9.0622 C.ar      1 <0>        -0.1982
     31 C21         3.5154    2.9874   -8.3304 C.ar      1 <0>         0.0335
     32 C22         1.1938    3.4300   -9.5204 C.3       1 <0>        -0.1093
     33 C23         0.5950    2.5030  -10.6046 C.3       1 <0>         0.0478
     34 O5          1.0663    1.2039  -10.2080 O.3       1 <0>        -0.2978
     35 H2          0.1967    1.7529   -0.7872 H         1 <0>         0.1145
     36 H3         -1.1897    1.6284   -1.8966 H         1 <0>         0.1154
     37 H4         -1.4579    1.6619   -0.1373 H         1 <0>         0.0984
     38 H5         -0.1898   -2.8425   -2.9043 H         1 <0>         0.1747
     39 H6         -0.4512   -3.9772   -0.7114 H         1 <0>         0.1822
     40 H7         -0.8388   -3.7184    1.6537 H         1 <0>         0.4415
     41 H8         -1.0583   -2.2197    2.3807 H         1 <0>         0.4214
     42 H9         -0.5746   -0.8236   -4.1824 H         1 <0>         0.1319
     43 H10        -0.9676    0.7120   -3.3728 H         1 <0>         0.1271
     44 H11         1.3526    0.4380   -5.6397 H         1 <0>         0.1249
     45 H12         0.9595    1.9736   -4.8301 H         1 <0>         0.1178
     46 H13         4.1195    3.1321   -4.6891 H         1 <0>         0.0926
     47 H14         2.5294    3.2802   -3.8963 H         1 <0>         0.0881
     48 H15         3.9264    3.1710   -2.0344 H         1 <0>         0.0782
     49 H16         3.5334    1.4527   -2.2550 H         1 <0>         0.0889
     50 H17         5.9875    2.8211   -3.3931 H         1 <0>         0.0681
     51 H18         5.9638    1.9168   -1.8733 H         1 <0>         0.0769
     52 H19         6.8489    0.4905   -3.5883 H         1 <0>         0.0911
     53 H20         5.2324   -0.1056   -3.1541 H         1 <0>         0.0818
     54 H21         5.5381    2.9500   -4.9223 H         1 <0>         0.4236
     55 H22         5.1158    0.0200   -8.3394 H         1 <0>         0.1476
     56 H23         3.1246   -0.6128   -9.6276 H         1 <0>         0.1398
     57 H24         3.6239    3.9969   -7.9622 H         1 <0>         0.1410
     58 H25         0.4901    3.5759   -8.7008 H         1 <0>         0.0929
     59 H26         1.4948    4.3862   -9.9483 H         1 <0>         0.0986
     60 H27        -0.4942    2.5408  -10.5865 H         1 <0>         0.1138
     61 H28         0.9753    2.7671  -11.5914 H         1 <0>         0.0853
     62 H29        -0.9807   -0.2949    1.0723 H         1 <0>         0.4404
@<TRIPOS>BOND
     1    1    2 1
     2    1   35 1
     3    1   36 1
     4    1   37 1
     5    2    7 ar
     6    2    3 ar
     7    3    4 ar
     8    3    9 1
     9    4    5 ar
    10    4   38 1
    11    5    6 ar
    12    5   39 1
    13    6    7 ar
    14    6    8 1
    15    7   62 1
    16    8   40 1
    17    8   41 1
    18    9   10 1
    19    9   42 1
    20    9   43 1
    21   10   11 2
    22   10   12 1
    23   12   13 1
    24   12   44 1
    25   12   45 1
    26   13   20 am
    27   13   14 1
    28   14   15 1
    29   14   46 1
    30   14   47 1
    31   15   16 1
    32   15   48 1
    33   15   49 1
    34   16   17 1
    35   16   50 1
    36   16   51 1
    37   17   18 1
    38   17   52 1
    39   17   53 1
    40   18   19 1
    41   18   20 1
    42   18   22 1
    43   20   21 2
    44   22   23 1
    45   22   54 1
    46   23   24 2
    47   23   25 2
    48   23   26 1
    49   26   31 ar
    50   26   27 ar
    51   27   28 ar
    52   27   55 1
    53   28   29 ar
    54   28   56 1
    55   29   34 1
    56   29   30 ar
    57   30   31 ar
    58   30   32 1
    59   31   57 1
    60   32   33 1
    61   32   58 1
    62   32   59 1
    63   33   34 1
    64   33   60 1
    65   33   61 1
@<TRIPOS>MOLECULE
ZINC63316033
   50    53     0     0     0
SMALL
USER_CHARGES

@<TRIPOS>ATOM
      1 C1         -0.0184    1.5028    0.0103 C.3       1 <0>        -0.1221
      2 C2          0.0021   -0.0041    0.0020 C.2       1 <0>         0.1768
      3 C3         -1.1377   -0.6524    0.0041 C.2       1 <0>        -0.2349
      4 C4         -1.2406   -2.1536   -0.0110 C.3       1 <0>         0.4032
      5 H1         -1.9460   -2.4767    0.7546 H         1 <0>         0.0940
      6 N1          0.0703   -2.7372    0.2584 N.pl3     1 <0>        -0.4224
      7 C5          1.2244   -2.0233    0.2505 C.2       1 <0>         0.5114
      8 N2          1.2328   -0.6606   -0.0133 N.pl3     1 <0>        -0.6235
      9 N3          2.2054   -2.8398    0.5194 N.2       1 <0>        -0.5565
     10 C6          1.7219   -4.0724    0.7086 C.2       1 <0>         0.2306
     11 N4          0.4204   -4.0523    0.5592 N.2       1 <0>        -0.3138
     12 O1         -1.6990   -2.5863   -1.2934 O.3       1 <0>        -0.5594
     13 C7         -2.4136    0.1492    0.0230 C.3       1 <0>        -0.0393
     14 C8         -2.9238    0.3297   -1.4081 C.3       1 <0>        -0.1356
     15 C9         -4.1998    1.1314   -1.3892 C.2       1 <0>         0.5185
     16 O2         -4.6561    1.5201   -0.3349 O.2       1 <0>        -0.5306
     17 N5         -4.8337    1.4164   -2.5439 N.am      1 <0>        -0.7391
     18 C10        -6.0741    2.1957   -2.5255 C.3       1 <0>         0.1251
     19 C11        -6.5843    2.3762   -3.9566 C.3       1 <0>        -0.1072
     20 C12        -7.8602    3.1778   -3.9377 C.2       1 <0>         0.0773
     21 C13        -7.9845    4.5127   -4.1152 C.ar      1 <0>        -0.1512
     22 C14        -7.0059    5.5769   -4.3689 C.ar      1 <0>        -0.0638
     23 C15        -7.4424    6.8515   -4.5047 C.ar      1 <0>         0.0837
     24 C16        -8.8045    7.1784   -4.4091 C.ar      1 <0>         0.0193
     25 C17        -9.7608    6.2551   -4.1773 C.ar      1 <0>        -0.1730
     26 C18        -9.4143    4.8845   -4.0188 C.ar      1 <0>         0.3250
     27 N6        -10.1454    3.8206   -3.7906 N.pl3     1 <0>        -0.5741
     28 C19        -9.2617    2.6514   -3.7228 C.3       1 <0>         0.0591
     29 F1         -6.5445    7.8336   -4.7379 F         1 <0>        -0.1108
     30 H2          1.0042    1.8801    0.0026 H         1 <0>         0.0780
     31 H3         -0.5455    1.8639   -0.8728 H         1 <0>         0.0886
     32 H4         -0.5286    1.8543    0.9071 H         1 <0>         0.0956
     33 H5          2.3109   -4.9457    0.9469 H         1 <0>         0.2268
     34 H6         -1.7892   -3.5456   -1.3758 H         1 <0>         0.3907
     35 H7         -3.1644   -0.3767    0.6128 H         1 <0>         0.0802
     36 H8         -2.2223    1.1264    0.4664 H         1 <0>         0.0877
     37 H9         -2.1730    0.8556   -1.9979 H         1 <0>         0.0962
     38 H10        -3.1152   -0.6474   -1.8516 H         1 <0>         0.1096
     39 H11        -4.4687    1.1055   -3.3871 H         1 <0>         0.4073
     40 H12        -6.8249    1.6698   -1.9357 H         1 <0>         0.0779
     41 H13        -5.8827    3.1728   -2.0820 H         1 <0>         0.0786
     42 H14        -5.8335    2.9021   -4.5464 H         1 <0>         0.1174
     43 H15        -6.7757    1.3990   -4.4000 H         1 <0>         0.1214
     44 H16        -5.9535    5.3469   -4.4457 H         1 <0>         0.1722
     45 H17        -9.0987    8.2111   -4.5253 H         1 <0>         0.1751
     46 H18       -10.7952    6.5583   -4.1117 H         1 <0>         0.1731
     47 H19        -9.5188    1.9374   -4.5052 H         1 <0>         0.1808
     48 H20        -9.3400    2.1805   -2.7430 H         1 <0>         0.1799
     49 H21       -11.1098    3.8080   -3.6875 H         1 <0>         0.4589
     50 H22         2.0579   -0.1847   -0.1968 H         1 <0>         0.4374
@<TRIPOS>BOND
     1    1    2 1
     2    1   30 1
     3    1   31 1
     4    1   32 1
     5    2    8 1
     6    2    3 2
     7    3    4 1
     8    3   13 1
     9    4    5 1
    10    4    6 1
    11    4   12 1
    12    6   11 1
    13    6    7 1
    14    7    8 1
    15    7    9 2
    16    8   50 1
    17    9   10 1
    18   10   11 2
    19   10   33 1
    20   12   34 1
    21   13   14 1
    22   13   35 1
    23   13   36 1
    24   14   15 1
    25   14   37 1
    26   14   38 1
    27   15   16 2
    28   15   17 am
    29   17   18 1
    30   17   39 1
    31   18   19 1
    32   18   40 1
    33   18   41 1
    34   19   20 1
    35   19   42 1
    36   19   43 1
    37   20   28 1
    38   20   21 2
    39   21   26 ar
    40   21   22 ar
    41   22   23 ar
    42   22   44 1
    43   23   24 ar
    44   23   29 1
    45   24   25 ar
    46   24   45 1
    47   25   26 ar
    48   25   46 1
    49   26   27 2
    50   27   28 1
    51   27   49 1
    52   28   47 1
    53   28   48 1
@<TRIPOS>MOLECULE
ZINC66651183
   66    67     0     0     0
SMALL
USER_CHARGES

@<TRIPOS>ATOM
      1 C1         -0.5089    1.7211    0.1178 C.3       1 <0>        -0.1899
      2 C2         -0.4672    0.1921    0.1551 C.3       1 <0>        -0.0107
      3 N1         -1.8353   -0.3372    0.0781 N.4       1 <0>        -0.3848
      4 C3         -2.4216    0.0139   -1.2215 C.3       1 <0>        -0.0248
      5 C4         -3.8855   -0.4371   -1.2589 C.3       1 <0>         0.0881
      6 N2         -3.9400   -1.8712   -0.9358 N.am      1 <0>        -0.6380
      7 C5         -3.2363   -2.3376    0.2689 C.3       1 <0>         0.0847
      8 C6         -1.8031   -1.7969    0.2342 C.3       1 <0>        -0.0219
      9 C7         -4.6158   -2.7333   -1.7210 C.2       1 <0>         0.5223
     10 O1         -5.1903   -2.3301   -2.7101 O.2       1 <0>        -0.5007
     11 C8         -4.6577   -4.1983   -1.3699 C.3       1 <0>        -0.1372
     12 C9         -5.4839   -4.9499   -2.4155 C.3       1 <0>        -0.0747
     13 C10        -4.7784   -4.8769   -3.7716 C.3       1 <0>        -0.1305
     14 C11        -5.6254   -5.6006   -4.8230 C.3       1 <0>         0.1143
     15 N3         -5.8936   -6.9673   -4.3552 N.am      1 <0>        -0.6176
     16 C12        -6.4877   -7.1547   -3.0245 C.3       1 <0>         0.1034
     17 C13        -5.6310   -6.4135   -1.9932 C.3       1 <0>        -0.1309
     18 C14        -5.6006   -8.0290   -5.1320 C.2       1 <0>         0.5013
     19 O2         -5.1108   -7.8611   -6.2288 O.2       1 <0>        -0.4988
     20 C15        -5.8817   -9.4247   -4.6379 C.3       1 <0>         0.1558
     21 H1         -5.6277   -9.4937   -3.5802 H         1 <0>         0.1081
     22 C16        -7.3660   -9.7437   -4.8278 C.3       1 <0>        -0.1315
     23 C17        -7.6692  -11.1256   -4.2455 C.3       1 <0>        -0.0914
     24 C18        -7.4711  -11.0946   -2.7287 C.3       1 <0>        -0.1518
     25 C19        -9.1165  -11.5066   -4.5632 C.3       1 <0>        -0.1481
     26 N4         -5.0751  -10.3833   -5.3974 N.am      1 <0>        -0.7352
     27 C20        -5.2199  -10.4758   -6.7342 C.2       1 <0>         0.7112
     28 O3         -6.0198   -9.7637   -7.3098 O.2       1 <0>        -0.5640
     29 N5         -4.4779  -11.3576   -7.4329 N.am      1 <0>        -0.8693
     30 H2          0.5062    2.1138    0.1750 H         1 <0>         0.1081
     31 H3         -0.9737    2.0493   -0.8119 H         1 <0>         0.0808
     32 H4         -1.0891    2.0894    0.9639 H         1 <0>         0.0816
     33 H5          0.1130   -0.1763   -0.6909 H         1 <0>         0.1291
     34 H6         -0.0024   -0.1361    1.0848 H         1 <0>         0.1327
     35 H7         -2.3702    1.0934   -1.3637 H         1 <0>         0.1453
     36 H8         -1.8674   -0.4844   -2.0168 H         1 <0>         0.1334
     37 H9         -4.4612    0.1260   -0.5243 H         1 <0>         0.0944
     38 H10        -4.2948   -0.2703   -2.2553 H         1 <0>         0.1362
     39 H11        -3.7464   -1.9665    1.1578 H         1 <0>         0.0984
     40 H12        -3.2164   -3.4274    0.2827 H         1 <0>         0.1314
     41 H13        -1.2675   -2.2404   -0.6052 H         1 <0>         0.1337
     42 H14        -1.2958   -2.0518    1.1647 H         1 <0>         0.1451
     43 H15        -3.6434   -4.5970   -1.3532 H         1 <0>         0.0978
     44 H16        -5.1136   -4.3237   -0.3878 H         1 <0>         0.1019
     45 H17        -6.4708   -4.4939   -2.4948 H         1 <0>         0.0856
     46 H18        -4.6531   -3.8334   -4.0608 H         1 <0>         0.0877
     47 H19        -3.8014   -5.3548   -3.6996 H         1 <0>         0.0600
     48 H20        -6.5676   -5.0703   -4.9615 H         1 <0>         0.0677
     49 H21        -5.0824   -5.6377   -5.7674 H         1 <0>         0.0923
     50 H22        -7.5002   -6.7511   -3.0163 H         1 <0>         0.0735
     51 H23        -6.5137   -8.2171   -2.7822 H         1 <0>         0.0888
     52 H24        -4.6460   -6.8769   -1.9380 H         1 <0>         0.0697
     53 H25        -6.1126   -6.4637   -1.0167 H         1 <0>         0.0797
     54 H26        -7.9674   -8.9933   -4.3147 H         1 <0>         0.0730
     55 H27        -7.6060   -9.7368   -5.8911 H         1 <0>         0.0976
     56 H28        -6.9951  -11.8609   -4.6849 H         1 <0>         0.0718
     57 H29        -8.1452  -10.3593   -2.2893 H         1 <0>         0.0564
     58 H30        -7.6871  -12.0791   -2.3138 H         1 <0>         0.0585
     59 H31        -6.4400  -10.8232   -2.5024 H         1 <0>         0.0506
     60 H32        -9.3349  -12.4878   -4.1418 H         1 <0>         0.0566
     61 H33        -9.7903  -10.7672   -4.1302 H         1 <0>         0.0550
     62 H34        -9.2557  -11.5361   -5.6438 H         1 <0>         0.0560
     63 H35        -4.4370  -10.9513   -4.9382 H         1 <0>         0.3992
     64 H36        -3.8397  -11.9257   -6.9737 H         1 <0>         0.3940
     65 H37        -4.5820  -11.4242   -8.3950 H         1 <0>         0.4158
     66 H38        -2.3928    0.0665    0.8159 H         1 <0>         0.4233
@<TRIPOS>BOND
     1    1    2 1
     2    1   30 1
     3    1   31 1
     4    1   32 1
     5    2    3 1
     6    2   33 1
     7    2   34 1
     8    3    8 1
     9    3    4 1
    10    3   66 1
    11    4    5 1
    12    4   35 1
    13    4   36 1
    14    5    6 1
    15    5   37 1
    16    5   38 1
    17    6    7 1
    18    6    9 am
    19    7    8 1
    20    7   39 1
    21    7   40 1
    22    8   41 1
    23    8   42 1
    24    9   10 2
    25    9   11 1
    26   11   12 1
    27   11   43 1
    28   11   44 1
    29   12   17 1
    30   12   13 1
    31   12   45 1
    32   13   14 1
    33   13   46 1
    34   13   47 1
    35   14   15 1
    36   14   48 1
    37   14   49 1
    38   15   16 1
    39   15   18 am
    40   16   17 1
    41   16   50 1
    42   16   51 1
    43   17   52 1
    44   17   53 1
    45   18   19 2
    46   18   20 1
    47   20   21 1
    48   20   22 1
    49   20   26 1
    50   22   23 1
    51   22   54 1
    52   22   55 1
    53   23   24 1
    54   23   25 1
    55   23   56 1
    56   24   57 1
    57   24   58 1
    58   24   59 1
    59   25   60 1
    60   25   61 1
    61   25   62 1
    62   26   27 am
    63   26   63 1
    64   27   28 2
    65   27   29 am
    66   29   64 1
    67   29   65 1
@<TRIPOS>MOLECULE
ZINC06511134
   65    66     0     0     0
SMALL
USER_CHARGES
4-amino-N'-(cyclohexylcarbamoylmethyl)-N'-(3-diethylaminopropyl)isothiazole-3,5-dicarboxamide
@<TRIPOS>ATOM
      1 C1          4.7884   -2.1560    6.2947 C.3       1 <0>        -0.1838
      2 C2          3.4465   -1.7040    5.7150 C.3       1 <0>        -0.0147
      3 C3          3.3639    0.1016    7.3260 C.3       1 <0>        -0.0099
      4 C4          2.2192   -0.5801    8.0783 C.3       1 <0>        -0.1887
      5 C5          4.2994    0.4841    5.1258 C.3       1 <0>        -0.0074
      6 C6          4.0390    0.2813    3.6318 C.3       1 <0>        -0.1682
      7 C7          5.0848    1.0511    2.8227 C.3       1 <0>         0.1300
      8 N1          4.8355    0.8569    1.3922 N.am      1 <0>        -0.5934
      9 C8          4.0455    1.8397    0.6463 C.3       1 <0>         0.0763
     10 C9          2.6185    1.3656    0.5463 C.2       1 <0>         0.4908
     11 O1          2.2934    0.3107    1.0485 O.2       1 <0>        -0.5234
     12 N2          1.7037    2.1140   -0.1014 N.am      1 <0>        -0.7193
     13 C10         0.3165    1.6531   -0.1987 C.3       1 <0>         0.1456
     14 C11        -0.4487    2.0694    1.0592 C.3       1 <0>        -0.1235
     15 C12        -1.8974    1.5881    0.9575 C.3       1 <0>        -0.1182
     16 C13        -2.5580    2.2147   -0.2720 C.3       1 <0>        -0.1244
     17 C14        -1.7929    1.7984   -1.5299 C.3       1 <0>        -0.1180
     18 C15        -0.3441    2.2798   -1.4282 C.3       1 <0>        -0.1289
     19 C16         5.3328   -0.2259    0.7623 C.2       1 <0>         0.6384
     20 O2          5.9361   -1.0736    1.3938 O.2       1 <0>        -0.5322
     21 C17         5.1473   -0.3823   -0.6817 C.2       1 <0>        -0.3965
     22 C18         5.6855   -1.3388   -1.5445 C.2       1 <0>         0.2825
     23 C19         5.2728   -1.1596   -2.8649 C.2       1 <0>        -0.0226
     24 N3          4.4635   -0.1655   -3.1566 N.2       1 <0>        -0.4331
     25 S1          4.1686    0.5918   -1.8062 S.3       1 <0>         0.4230
     26 C20         5.7398   -2.0750   -3.9221 C.2       1 <0>         0.5993
     27 O3          6.4886   -2.9922   -3.6452 O.2       1 <0>        -0.5370
     28 N4          5.3366   -1.8952   -5.1956 N.am      1 <0>        -0.8269
     29 N5          6.5373   -2.3555   -1.1339 N.pl3     1 <0>        -0.7994
     30 H1          4.9402   -3.2134    6.0777 H         1 <0>         0.1046
     31 H2          5.5929   -1.5738    5.8454 H         1 <0>         0.0801
     32 H3          4.7880   -2.0030    7.3738 H         1 <0>         0.0793
     33 H4          2.6362   -2.2232    6.2268 H         1 <0>         0.1281
     34 H5          3.4130   -1.9381    4.6509 H         1 <0>         0.1301
     35 H6          4.3172   -0.2293    7.7379 H         1 <0>         0.1317
     36 H7          3.2769    1.1827    7.4343 H         1 <0>         0.1272
     37 H8          1.2704   -0.3213    7.6081 H         1 <0>         0.0787
     38 H9          2.3570   -1.6609    8.0475 H         1 <0>         0.0807
     39 H10         2.2146   -0.2437    9.1150 H         1 <0>         0.1049
     40 H11         5.2946    0.1155    5.3744 H         1 <0>         0.1338
     41 H12         4.2348    1.5455    5.3650 H         1 <0>         0.1287
     42 H13         3.0438    0.6500    3.3831 H         1 <0>         0.0934
     43 H14         4.1035   -0.7801    3.3925 H         1 <0>         0.0967
     44 H15         6.0800    0.6824    3.0713 H         1 <0>         0.0973
     45 H16         5.0203    2.1125    3.0620 H         1 <0>         0.0919
     46 H17         4.4610    1.9556   -0.3547 H         1 <0>         0.1090
     47 H18         4.0745    2.7981    1.1649 H         1 <0>         0.1295
     48 H19         1.9637    2.9578   -0.5031 H         1 <0>         0.4040
     49 H20         0.3000    0.5672   -0.2912 H         1 <0>         0.0901
     50 H21         0.0219    1.6230    1.9351 H         1 <0>         0.0602
     51 H22        -0.4323    3.1553    1.1517 H         1 <0>         0.0654
     52 H23        -2.4425    1.8846    1.8537 H         1 <0>         0.0652
     53 H24        -1.9139    0.5021    0.8650 H         1 <0>         0.0636
     54 H25        -2.5416    3.3007   -0.1795 H         1 <0>         0.0647
     55 H26        -3.5901    1.8718   -0.3444 H         1 <0>         0.0669
     56 H27        -2.2635    2.2449   -2.4058 H         1 <0>         0.0715
     57 H28        -1.8093    0.7125   -1.6224 H         1 <0>         0.0654
     58 H29        -0.3277    3.3657   -1.3357 H         1 <0>         0.0714
     59 H30         0.2010    1.9832   -2.3244 H         1 <0>         0.0714
     60 H31         4.7393   -1.1636   -5.4165 H         1 <0>         0.4122
     61 H32         5.6438   -2.4974   -5.8912 H         1 <0>         0.4135
     62 H33         6.7897   -2.4294   -0.2003 H         1 <0>         0.4164
     63 H34         6.8800   -2.9919   -1.7808 H         1 <0>         0.4225
     64 N6          3.2693   -0.2474    5.8929 N.4       1 <0>        -0.3939
     65 H35         2.3413    0.0206    5.5449 H         1 <0>         0.4274
@<TRIPOS>BOND
     1    1    2 1
     2    1   30 1
     3    1   31 1
     4    1   32 1
     5    2   33 1
     6    2   34 1
     7    2   64 1
     8    3    4 1
     9    3   35 1
    10    3   36 1
    11    3   64 1
    12    4   37 1
    13    4   38 1
    14    4   39 1
    15    5    6 1
    16    5   40 1
    17    5   41 1
    18    5   64 1
    19    6    7 1
    20    6   42 1
    21    6   43 1
    22    7    8 1
    23    7   44 1
    24    7   45 1
    25    8    9 1
    26    8   19 am
    27    9   10 1
    28    9   46 1
    29    9   47 1
    30   10   11 2
    31   10   12 am
    32   12   13 1
    33   12   48 1
    34   13   18 1
    35   13   14 1
    36   13   49 1
    37   14   15 1
    38   14   50 1
    39   14   51 1
    40   15   16 1
    41   15   52 1
    42   15   53 1
    43   16   17 1
    44   16   54 1
    45   16   55 1
    46   17   18 1
    47   17   56 1
    48   17   57 1
    49   18   58 1
    50   18   59 1
    51   19   20 2
    52   19   21 1
    53   21   25 1
    54   21   22 2
    55   22   23 1
    56   22   29 1
    57   23   24 2
    58   23   26 1
    59   24   25 1
    60   26   27 2
    61   26   28 am
    62   28   60 1
    63   28   61 1
    64   29   62 1
    65   29   63 1
    66   64   65 1
@<TRIPOS>MOLECULE
ZINC16626200
   54    55     0     0     0
SMALL
USER_CHARGES
(2R)-2-[[2-[(5-chloro-2-methoxy-phenyl)amino]-2-oxo-ethyl]-methyl-amino]-N-(4-sulfamoylphenyl)propanamide
@<TRIPOS>ATOM
      1 C1          5.5719    8.0859    0.4583 C.3       1 <0>        -0.1825
      2 C2          4.5390    8.2081   -0.6638 C.3       1 <0>         0.0113
      3 H1          4.9581    7.8108   -1.5882 H         1 <0>         0.1691
      4 C3          4.1780    9.6582   -0.8585 C.2       1 <0>         0.5079
      5 O1          3.0302   10.0222   -0.7131 O.2       1 <0>        -0.4954
      6 N1          5.1306   10.5506   -1.1942 N.am      1 <0>        -0.6479
      7 C4          4.8162   11.9116   -1.2772 C.ar      1 <0>         0.1785
      8 C5          3.5695   12.3107   -1.7409 C.ar      1 <0>        -0.1379
      9 C6          3.2599   13.6546   -1.8154 C.ar      1 <0>         0.0049
     10 C7          4.1944   14.6027   -1.4409 C.ar      1 <0>        -0.6789
     11 C8          5.4388   14.2087   -0.9847 C.ar      1 <0>         0.0010
     12 C9          5.7523   12.8662   -0.9015 C.ar      1 <0>        -0.1527
     13 S1          3.7983   16.3165   -1.5449 S.o2      1 <0>         2.7006
     14 O2          2.3816   16.4102   -1.4851 O.2       1 <0>        -0.9562
     15 O3          4.6457   16.9859   -0.6214 O.2       1 <0>        -0.9537
     16 N2          4.2433   16.8311   -3.0547 N.pl3     1 <0>        -1.2462
     17 C10         2.7551    7.9401    0.9513 C.3       1 <0>        -0.0708
     18 C11         3.6247    6.0097   -0.2235 C.3       1 <0>        -0.0260
     19 C12         2.3334    5.2429   -0.0991 C.2       1 <0>         0.4985
     20 O4          1.2754    5.8357   -0.0806 O.2       1 <0>        -0.5056
     21 N3          2.3542    3.8983   -0.0084 N.am      1 <0>        -0.6298
     22 C13         1.1527    3.1773   -0.0100 C.ar      1 <0>         0.1050
     23 C14         0.0185    3.7175   -0.5981 C.ar      1 <0>        -0.0806
     24 C15        -1.1661    3.0038   -0.5987 C.ar      1 <0>        -0.0539
     25 C16        -1.2212    1.7486   -0.0187 C.ar      1 <0>        -0.0680
     26 C17        -0.0957    1.2072    0.5740 C.ar      1 <0>        -0.1741
     27 C18         1.0945    1.9162    0.5786 C.ar      1 <0>         0.1199
     28 O5          2.2037    1.3819    1.1561 O.3       1 <0>        -0.3200
     29 C19         2.0702    0.0844    1.7398 C.3       1 <0>         0.0244
     30 Cl1        -2.5849    3.6808   -1.3350 Cl        1 <0>        -0.0491
     31 H2          5.8330    7.0371    0.5991 H         1 <0>         0.1005
     32 H3          6.4657    8.6503    0.1925 H         1 <0>         0.1133
     33 H4          5.1528    8.4833    1.3827 H         1 <0>         0.0945
     34 H5          6.0341   10.2495   -1.3782 H         1 <0>         0.4234
     35 H6          2.8411   11.5709   -2.0384 H         1 <0>         0.1492
     36 H7          2.2886   13.9656   -2.1707 H         1 <0>         0.1524
     37 H8          6.1664   14.9515   -0.6926 H         1 <0>         0.1546
     38 H9          6.7241   12.5590   -0.5444 H         1 <0>         0.1426
     39 H10         3.7601   17.5555   -3.4822 H         1 <0>         0.4254
     40 H11         4.9872   16.4082   -3.5116 H         1 <0>         0.4172
     41 H12         3.4589    7.7716    1.7664 H         1 <0>         0.1208
     42 H13         2.5499    9.0070    0.8631 H         1 <0>         0.1455
     43 H14         1.8267    7.4073    1.1568 H         1 <0>         0.1412
     44 H15         4.2489    5.8143    0.6484 H         1 <0>         0.1673
     45 H16         4.1500    5.6931   -1.1246 H         1 <0>         0.1653
     46 H17         3.2010    3.4297    0.0580 H         1 <0>         0.4259
     47 H18         0.0605    4.6950   -1.0556 H         1 <0>         0.1613
     48 H19        -2.1469    1.1923   -0.0255 H         1 <0>         0.1459
     49 H20        -0.1432    0.2292    1.0298 H         1 <0>         0.1496
     50 H21         3.0259   -0.2232    2.1641 H         1 <0>         0.1090
     51 H22         1.3166    0.1158    2.5266 H         1 <0>         0.0634
     52 H23         1.7663   -0.6290    0.9738 H         1 <0>         0.0639
     53 N4          3.3151    7.4513   -0.3264 N.4       1 <0>        -0.3677
     54 H24         2.6209    7.5911   -1.0699 H         1 <0>         0.4439
@<TRIPOS>BOND
     1    1    2 1
     2    1   31 1
     3    1   32 1
     4    1   33 1
     5    2    3 1
     6    2    4 1
     7    2   53 1
     8    4    5 2
     9    4    6 am
    10    6    7 1
    11    6   34 1
    12    7   12 ar
    13    7    8 ar
    14    8    9 ar
    15    8   35 1
    16    9   10 ar
    17    9   36 1
    18   10   11 ar
    19   10   13 1
    20   11   12 ar
    21   11   37 1
    22   12   38 1
    23   13   14 2
    24   13   15 2
    25   13   16 1
    26   16   39 1
    27   16   40 1
    28   17   41 1
    29   17   42 1
    30   17   43 1
    31   17   53 1
    32   18   19 1
    33   18   44 1
    34   18   45 1
    35   18   53 1
    36   19   20 2
    37   19   21 am
    38   21   22 1
    39   21   46 1
    40   22   27 ar
    41   22   23 ar
    42   23   24 ar
    43   23   47 1
    44   24   25 ar
    45   24   30 1
    46   25   26 ar
    47   25   48 1
    48   26   27 ar
    49   26   49 1
    50   27   28 1
    51   28   29 1
    52   29   50 1
    53   29   51 1
    54   29   52 1
    55   53   54 1
@<TRIPOS>MOLECULE
ZINC29126141
   69    72     0     0     0
SMALL
USER_CHARGES
(3R,7S,8aS)-7-benzyl-N-[(1S)-4-guanidino-1-(thiazole-2-carbonyl)butyl]-8a-methyl-5-oxo-3,6,7,8-tetrahydro-2H-thiazolo[3,2-a]pyridine-3-carboxamide
@<TRIPOS>ATOM
      1 C1          1.5154    7.7317   -3.4118 C.3       1 <0>        -0.1400
      2 C2          0.1130    7.9107   -2.8269 C.3       1 <0>         0.2213
      3 C3          0.0144    7.3895   -1.4029 C.3       1 <0>        -0.1142
      4 C4         -0.0912    5.8648   -1.4085 C.3       1 <0>        -0.0764
      5 H1          0.7585    5.4413   -1.9641 H         1 <0>         0.0857
      6 C5         -1.3983    5.4463   -2.0816 C.3       1 <0>        -0.1304
      7 C6         -1.5175    6.1049   -3.4268 C.2       1 <0>         0.5489
      8 O1         -2.1556    5.5574   -4.3008 O.2       1 <0>        -0.5335
      9 N1         -0.9290    7.2933   -3.6841 N.am      1 <0>        -0.5963
     10 C7         -1.2453    8.1276   -4.8471 C.3       1 <0>         0.1079
     11 H2         -2.2916    7.8828   -5.0821 H         1 <0>         0.1270
     12 C8         -1.1317    9.6452   -4.5813 C.3       1 <0>        -0.0786
     13 S1         -0.4361    9.6710   -2.8729 S.3       1 <0>        -0.2503
     14 C9         -0.3061    7.7646   -5.9684 C.2       1 <0>         0.5140
     15 O2          0.5311    6.9028   -5.8032 O.2       1 <0>        -0.5045
     16 N2         -0.3965    8.3977   -7.1548 N.am      1 <0>        -0.7313
     17 C10         0.5165    8.0449   -8.2448 C.3       1 <0>         0.1328
     18 H3          0.7195    6.9663   -8.1712 H         1 <0>         0.1299
     19 C11        -0.1325    8.3916   -9.5862 C.3       1 <0>        -0.1153
     20 C12        -1.3699    7.5164   -9.7954 C.3       1 <0>        -0.1303
     21 C13        -2.0190    7.8632  -11.1368 C.3       1 <0>         0.1023
     22 N3         -3.2038    7.0251  -11.3371 N.pl3     1 <0>        -0.7184
     23 C14        -3.9551    7.1589  -12.4807 C.cat     1 <0>         0.7382
     24 N4         -5.0093    6.4133  -12.6589 N.pl3     1 <0>        -0.8148
     25 N5         -3.5944    8.0791  -13.4363 N.pl3     1 <0>        -0.8527
     26 C15         1.8014    8.8177   -8.0938 C.2       1 <0>         0.4407
     27 O3          1.8506    9.7732   -7.3474 O.2       1 <0>        -0.4159
     28 C16         2.9901    8.4157   -8.8474 C.2       1 <0>        -0.0366
     29 N6          3.1458    7.4082   -9.7020 N.2       1 <0>        -0.4354
     30 C17         4.2981    7.2177  -10.2812 C.2       1 <0>         0.0054
     31 C18         5.3462    8.0477   -9.9983 C.2       1 <0>        -0.2047
     32 S2          4.6223    9.1422   -8.8597 S.3       1 <0>         0.1758
     33 C19        -0.0705    5.3471    0.0311 C.3       1 <0>        -0.0755
     34 C20        -0.0501    3.8402    0.0228 C.ar      1 <0>        -0.0855
     35 C21         1.1563    3.1654    0.0076 C.ar      1 <0>        -0.1160
     36 C22         1.1750    1.7832    0.0004 C.ar      1 <0>        -0.1169
     37 C23        -0.0126    1.0758    0.0080 C.ar      1 <0>        -0.1219
     38 C24        -1.2190    1.7506    0.0173 C.ar      1 <0>        -0.1174
     39 C25        -1.2377    3.1328    0.0299 C.ar      1 <0>        -0.1181
     40 H4          2.2533    8.2031   -2.7460 H         1 <0>         0.0779
     41 H5          1.5620    8.2045   -4.4039 H         1 <0>         0.0685
     42 H6          1.7392    6.6588   -3.5060 H         1 <0>         0.0773
     43 H7          0.9116    7.6874   -0.8405 H         1 <0>         0.0976
     44 H8         -0.8787    7.8117   -0.9189 H         1 <0>         0.0922
     45 H9         -1.4107    4.3540   -2.2111 H         1 <0>         0.1103
     46 H10        -2.2482    5.7506   -1.4531 H         1 <0>         0.1080
     47 H11        -0.4647   10.0994   -5.3288 H         1 <0>         0.1128
     48 H12        -2.1283   10.1054   -4.6515 H         1 <0>         0.1229
     49 H13        -1.1558    9.1793   -7.3046 H         1 <0>         0.4252
     50 H14        -0.4283    9.4511   -9.5874 H         1 <0>         0.0851
     51 H15         0.5863    8.2106  -10.3990 H         1 <0>         0.0997
     52 H16        -1.0741    6.4569   -9.7942 H         1 <0>         0.0876
     53 H17        -2.0887    7.6973   -8.9826 H         1 <0>         0.0854
     54 H18        -2.3148    8.9227  -11.1379 H         1 <0>         0.0867
     55 H19        -1.3002    7.6824  -11.9496 H         1 <0>         0.0873
     56 H20        -3.4923    6.2888  -10.5725 H         1 <0>         0.4602
     57 H21        -5.6104    6.5204  -13.5739 H         1 <0>         0.4688
     58 H22        -4.1955    8.1862  -14.3513 H         1 <0>         0.4616
     59 H23        -2.7047    8.7083  -13.2859 H         1 <0>         0.4603
     60 H24         4.4255    6.4030  -10.9786 H         1 <0>         0.1768
     61 H25         6.3561    8.0283  -10.3806 H         1 <0>         0.2087
     62 H26         0.8275    5.7232    0.5431 H         1 <0>         0.0828
     63 H27        -0.9685    5.6987    0.5602 H         1 <0>         0.0804
     64 H28         2.0842    3.7181    0.0017 H         1 <0>         0.1213
     65 H29         2.1175    1.2560   -0.0115 H         1 <0>         0.1220
     66 H30         0.0021   -0.0041    0.0020 H         1 <0>         0.1216
     67 H31        -2.1469    1.1980    0.0188 H         1 <0>         0.1221
     68 H32        -2.1802    3.6600    0.0414 H         1 <0>         0.1212
     69 H33        -5.2978    5.6770  -11.8943 H         1 <0>         0.4688
@<TRIPOS>BOND
     1    1    2 1
     2    1   40 1
     3    1   41 1
     4    1   42 1
     5    2    9 1
     6    2   13 1
     7    2    3 1
     8    3    4 1
     9    3   43 1
    10    3   44 1
    11    4    5 1
    12    4    6 1
    13    4   33 1
    14    6    7 1
    15    6   45 1
    16    6   46 1
    17    7    8 2
    18    7    9 am
    19    9   10 1
    20   10   11 1
    21   10   12 1
    22   10   14 1
    23   12   13 1
    24   12   47 1
    25   12   48 1
    26   14   15 2
    27   14   16 am
    28   16   17 1
    29   16   49 1
    30   17   18 1
    31   17   19 1
    32   17   26 1
    33   19   20 1
    34   19   50 1
    35   19   51 1
    36   20   21 1
    37   20   52 1
    38   20   53 1
    39   21   22 1
    40   21   54 1
    41   21   55 1
    42   22   23 1
    43   22   56 1
    44   23   24 2
    45   23   25 1
    46   24   57 1
    47   24   69 1
    48   25   58 1
    49   25   59 1
    50   26   27 2
    51   26   28 1
    52   28   32 1
    53   28   29 2
    54   29   30 1
    55   30   31 2
    56   30   60 1
    57   31   32 1
    58   31   61 1
    59   33   34 1
    60   33   62 1
    61   33   63 1
    62   34   39 ar
    63   34   35 ar
    64   35   36 ar
    65   35   64 1
    66   36   37 ar
    67   36   65 1
    68   37   38 ar
    69   37   66 1
    70   38   39 ar
    71   38   67 1
    72   39   68 1
@<TRIPOS>MOLECULE
ZINC51318473
   73    76     0     0     0
SMALL
USER_CHARGES

@<TRIPOS>ATOM
      1 C1         -0.0208    0.4199    0.3877 C.3       1 <0>        -0.1532
      2 C2         -0.9991   -0.1520   -0.6403 C.3       1 <0>         0.0598
      3 O1         -0.2730   -0.6281   -1.7753 O.3       1 <0>        -0.3424
      4 C3         -0.9931   -1.1674   -2.7811 C.2       1 <0>         0.5427
      5 O2         -2.2052   -1.2310   -2.6954 O.2       1 <0>        -0.4902
      6 C4         -0.3389   -1.6586   -3.9351 C.2       1 <0>        -0.2433
      7 C5          0.3123   -2.8416   -3.9181 C.2       1 <0>         0.2103
      8 N1          0.9431   -3.3150   -5.0329 N.am      1 <0>        -0.6388
      9 C6          0.9693   -2.6653   -6.2035 C.2       1 <0>         0.7058
     10 O3          1.5575   -3.1673   -7.1414 O.2       1 <0>        -0.5581
     11 N2          0.3645   -1.4734   -6.3758 N.am      1 <0>        -0.7083
     12 C7         -0.3502   -0.8784   -5.2340 C.3       1 <0>         0.2468
     13 H1         -1.3894   -0.7266   -5.5257 H         1 <0>         0.0941
     14 C8          0.2550    0.4758   -4.9678 C.ar      1 <0>        -0.1279
     15 C9          1.6287    0.6209   -4.9167 C.ar      1 <0>        -0.0842
     16 C10         2.1839    1.8631   -4.6725 C.ar      1 <0>        -0.1185
     17 C11         1.3653    2.9603   -4.4799 C.ar      1 <0>        -0.0708
     18 C12        -0.0084    2.8153   -4.5319 C.ar      1 <0>        -0.1179
     19 C13        -0.5635    1.5739   -4.7803 C.ar      1 <0>        -0.1002
     20 C14         1.9705    4.3143   -4.2127 C.3       1 <0>        -0.1207
     21 C15         0.3437   -3.6523   -2.6481 C.3       1 <0>         0.0783
     22 N3         -0.3800   -4.9139   -2.8545 N.3       1 <0>        -0.5349
     23 C16        -1.8096   -4.6692   -3.0837 C.3       1 <0>         0.0456
     24 C17        -2.5037   -5.9863   -3.4378 C.3       1 <0>        -0.1171
     25 C18        -2.3148   -6.9818   -2.2898 C.3       1 <0>         0.0344
     26 C19        -0.8176   -7.1822   -2.0396 C.3       1 <0>        -0.1336
     27 C20        -0.1724   -5.8304   -1.7260 C.3       1 <0>         0.0519
     28 C21        -2.9660   -6.4419   -1.0427 C.2       1 <0>         0.5098
     29 O4         -3.7396   -5.5108   -1.1170 O.2       1 <0>        -0.4760
     30 N4         -2.6888   -6.9937    0.1553 N.am      1 <0>        -0.8449
     31 N5         -2.9289   -8.2672   -2.6487 N.4       1 <0>        -0.3682
     32 C22        -4.3653   -8.0737   -2.8805 C.3       1 <0>        -0.0173
     33 C23        -4.9950   -9.3928   -3.3333 C.3       1 <0>        -0.1424
     34 C24        -4.7898  -10.4503   -2.2447 C.3       1 <0>        -0.1404
     35 C25        -3.2919  -10.5902   -1.9587 C.3       1 <0>        -0.1406
     36 C26        -2.7253   -9.2268   -1.5568 C.3       1 <0>        -0.0342
     37 H2          0.6735   -0.3595    0.7014 H         1 <0>         0.0652
     38 H3          0.5356    1.2437   -0.0594 H         1 <0>         0.0702
     39 H4         -0.5746    0.7831    1.2534 H         1 <0>         0.0824
     40 H5         -1.5555   -0.9758   -0.1933 H         1 <0>         0.0645
     41 H6         -1.6934    0.6275   -0.9540 H         1 <0>         0.0716
     42 H7          1.3979   -4.1697   -4.9734 H         1 <0>         0.4305
     43 H8          0.3963   -1.0197   -7.2326 H         1 <0>         0.4369
     44 H9          2.2683   -0.2362   -5.0672 H         1 <0>         0.1153
     45 H10         3.2572    1.9764   -4.6319 H         1 <0>         0.1244
     46 H11        -0.6480    3.6724   -4.3811 H         1 <0>         0.1255
     47 H12        -1.6367    1.4613   -4.8246 H         1 <0>         0.1221
     48 H13         2.1348    4.8317   -5.1579 H         1 <0>         0.0746
     49 H14         1.2923    4.8992   -3.5914 H         1 <0>         0.0688
     50 H15         2.9221    4.1913   -3.6956 H         1 <0>         0.0688
     51 H16         1.3781   -3.8666   -2.3793 H         1 <0>         0.1162
     52 H17        -0.1310   -3.0883   -1.8452 H         1 <0>         0.0714
     53 H18        -2.2566   -4.2546   -2.1800 H         1 <0>         0.0665
     54 H19        -1.9301   -3.9629   -3.9051 H         1 <0>         0.1032
     55 H20        -3.5677   -5.8069   -3.5925 H         1 <0>         0.1059
     56 H21        -2.0666   -6.3945   -4.3491 H         1 <0>         0.1067
     57 H22        -0.6768   -7.8572   -1.1954 H         1 <0>         0.0971
     58 H23        -0.3539   -7.6092   -2.9289 H         1 <0>         0.1159
     59 H24         0.8964   -5.9675   -1.5614 H         1 <0>         0.1099
     60 H25        -0.6270   -5.4104   -0.8287 H         1 <0>         0.0501
     61 H26        -2.0153   -7.6883    0.2251 H         1 <0>         0.4053
     62 H27        -3.1626   -6.6962    0.9476 H         1 <0>         0.4227
     63 H28        -4.8406   -7.7429   -1.9570 H         1 <0>         0.1263
     64 H29        -4.5098   -7.3186   -3.6531 H         1 <0>         0.1374
     65 H30        -6.0618   -9.2475   -3.5031 H         1 <0>         0.1152
     66 H31        -4.5206   -9.7244   -4.2569 H         1 <0>         0.0911
     67 H32        -5.3073  -10.1430   -1.3359 H         1 <0>         0.0813
     68 H33        -5.1866  -11.4064   -2.5860 H         1 <0>         0.0979
     69 H34        -3.1414  -11.3008   -1.1460 H         1 <0>         0.1152
     70 H35        -2.7821  -10.9467   -2.8538 H         1 <0>         0.0913
     71 H36        -1.6590   -9.3229   -1.3522 H         1 <0>         0.1349
     72 H37        -3.2355   -8.8714   -0.6615 H         1 <0>         0.1330
     73 H38        -2.4991   -8.6208   -3.4903 H         1 <0>         0.4292
@<TRIPOS>BOND
     1    1    2 1
     2    1   37 1
     3    1   38 1
     4    1   39 1
     5    2    3 1
     6    2   40 1
     7    2   41 1
     8    3    4 1
     9    4    5 2
    10    4    6 1
    11    6   12 1
    12    6    7 2
    13    7    8 1
    14    7   21 1
    15    8    9 am
    16    8   42 1
    17    9   10 2
    18    9   11 am
    19   11   12 1
    20   11   43 1
    21   12   13 1
    22   12   14 1
    23   14   19 ar
    24   14   15 ar
    25   15   16 ar
    26   15   44 1
    27   16   17 ar
    28   16   45 1
    29   17   18 ar
    30   17   20 1
    31   18   19 ar
    32   18   46 1
    33   19   47 1
    34   20   48 1
    35   20   49 1
    36   20   50 1
    37   21   22 1
    38   21   51 1
    39   21   52 1
    40   22   27 1
    41   22   23 1
    42   23   24 1
    43   23   53 1
    44   23   54 1
    45   24   25 1
    46   24   55 1
    47   24   56 1
    48   25   26 1
    49   25   28 1
    50   25   31 1
    51   26   27 1
    52   26   57 1
    53   26   58 1
    54   27   59 1
    55   27   60 1
    56   28   29 2
    57   28   30 am
    58   30   61 1
    59   30   62 1
    60   31   36 1
    61   31   32 1
    62   31   73 1
    63   32   33 1
    64   32   63 1
    65   32   64 1
    66   33   34 1
    67   33   65 1
    68   33   66 1
    69   34   35 1
    70   34   67 1
    71   34   68 1
    72   35   36 1
    73   35   69 1
    74   35   70 1
    75   36   71 1
    76   36   72 1
@<TRIPOS>MOLECULE
ZINC39995866
   54    58     0     0     0
SMALL
USER_CHARGES

@<TRIPOS>ATOM
      1 C1          0.4293    1.1221    0.2475 C.3       1 <0>        -0.1637
      2 C2          0.2874   -0.3967    0.3666 C.3       1 <0>        -0.0751
      3 H1          0.6317   -0.7177    1.3497 H         1 <0>         0.1058
      4 C3          1.1181   -1.0640   -0.6991 C.2       1 <0>         0.5222
      5 O1          0.6082   -1.3894   -1.7503 O.2       1 <0>        -0.4731
      6 N1          2.4277   -1.2991   -0.4840 N.am      1 <0>        -0.6043
      7 C4          3.1920   -1.9131   -1.4646 C.2       1 <0>         0.0724
      8 C5          4.5402   -2.2364   -1.4172 C.2       1 <0>        -0.2652
      9 C6          5.0924   -2.8778   -2.5884 C.2       1 <0>        -0.1052
     10 C7          4.2319   -3.0913   -3.6010 C.2       1 <0>        -0.2438
     11 S1          2.6969   -2.4420   -2.9779 S.3       1 <0>         0.2941
     12 C8          5.3626   -1.9421   -0.2395 C.2       1 <0>         0.5944
     13 O2          4.8650   -1.4004    0.7302 O.2       1 <0>        -0.5745
     14 N2          6.6694   -2.2715   -0.2308 N.am      1 <0>        -0.8454
     15 S2         -1.4536   -0.8598    0.1546 S.3       1 <0>        -0.1660
     16 C9         -2.2840   -0.1110    1.5830 C.3       1 <0>         0.3750
     17 H2         -3.3538   -0.3175    1.5523 H         1 <0>         0.1367
     18 N3         -2.0404    1.3405    1.6177 N.pl3     1 <0>        -0.5835
     19 N4         -1.3659    1.6020    2.8160 N.2       1 <0>        -0.1759
     20 C10        -1.1735    0.5060    3.5013 C.2       1 <0>         0.2648
     21 N5         -1.6991   -0.6098    2.8384 N.pl3     1 <0>        -0.6064
     22 C11        -1.6725   -1.9997    3.3007 C.3       1 <0>         0.0755
     23 C12        -2.2357   -3.0677    2.3609 C.3       1 <0>        -0.1582
     24 C13        -3.0138   -2.6653    3.6154 C.3       1 <0>        -0.1878
     25 C14        -0.5234    0.4537    4.7438 C.2       1 <0>         0.1332
     26 C15        -0.0669    1.5317    5.5030 C.ar      1 <0>        -0.1391
     27 C16        -0.1025    2.9269    5.2950 C.ar      1 <0>        -0.0117
     28 C17         0.4302    3.7604    6.2255 C.ar      1 <0>        -0.1481
     29 C18         1.0181    3.2716    7.3940 C.ar      1 <0>         0.0480
     30 C19         1.0869    1.9436    7.6588 C.ar      1 <0>        -0.2049
     31 C20         0.5516    1.0112    6.7332 C.ar      1 <0>         0.3155
     32 N6          0.4936   -0.3061    6.7568 N.pl3     1 <0>        -0.5974
     33 C21        -0.1770   -0.7829    5.5434 C.3       1 <0>         0.0773
     34 H3          1.4755    1.4004    0.3749 H         1 <0>         0.0720
     35 H4          0.0851    1.4431   -0.7357 H         1 <0>         0.0830
     36 H5         -0.1715    1.6047    1.0183 H         1 <0>         0.0886
     37 H6          2.8355   -1.0388    0.3567 H         1 <0>         0.4313
     38 H7          6.1311   -3.1675   -2.6477 H         1 <0>         0.1455
     39 H8          4.4255   -3.5503   -4.5593 H         1 <0>         0.1933
     40 H9          7.0659   -2.7033   -1.0037 H         1 <0>         0.4044
     41 H10         7.2135   -2.0768    0.5483 H         1 <0>         0.4057
     42 H11        -2.2965    1.9882    0.9426 H         1 <0>         0.4693
     43 H12        -0.8176   -2.2732    3.9191 H         1 <0>         0.1321
     44 H13        -2.6259   -2.7362    1.3987 H         1 <0>         0.1156
     45 H14        -1.7512   -4.0441    2.3608 H         1 <0>         0.1168
     46 H15        -3.0411   -3.3770    4.4405 H         1 <0>         0.1127
     47 H16        -3.9159   -2.0691    3.4784 H         1 <0>         0.1034
     48 H17        -0.5512    3.3303    4.3993 H         1 <0>         0.1612
     49 H18         0.3988    4.8268    6.0575 H         1 <0>         0.1562
     50 H19         1.4297    3.9710    8.1067 H         1 <0>         0.1610
     51 H20         1.5483    1.5966    8.5715 H         1 <0>         0.1609
     52 H21        -1.0842   -1.3284    5.8029 H         1 <0>         0.1753
     53 H22         0.4959   -1.4227    4.9723 H         1 <0>         0.1709
     54 H23         0.8367   -0.8704    7.4672 H         1 <0>         0.4552
@<TRIPOS>BOND
     1    1    2 1
     2    1   34 1
     3    1   35 1
     4    1   36 1
     5    2    3 1
     6    2    4 1
     7    2   15 1
     8    4    5 2
     9    4    6 am
    10    6    7 1
    11    6   37 1
    12    7   11 1
    13    7    8 2
    14    8    9 1
    15    8   12 1
    16    9   10 2
    17    9   38 1
    18   10   11 1
    19   10   39 1
    20   12   13 2
    21   12   14 am
    22   14   40 1
    23   14   41 1
    24   15   16 1
    25   16   17 1
    26   16   21 1
    27   16   18 1
    28   18   19 1
    29   18   42 1
    30   19   20 2
    31   20   21 1
    32   20   25 1
    33   21   22 1
    34   22   24 1
    35   22   23 1
    36   22   43 1
    37   23   24 1
    38   23   44 1
    39   23   45 1
    40   24   46 1
    41   24   47 1
    42   25   33 1
    43   25   26 2
    44   26   31 ar
    45   26   27 ar
    46   27   28 ar
    47   27   48 1
    48   28   29 ar
    49   28   49 1
    50   29   30 ar
    51   29   50 1
    52   30   31 ar
    53   30   51 1
    54   31   32 2
    55   32   33 1
    56   32   54 1
    57   33   52 1
    58   33   53 1
@<TRIPOS>MOLECULE
ZINC16625619
   50    51     0     0     0
SMALL
USER_CHARGES
(2S)-2-[[2-[[4-chloro-3-(trifluoromethyl)phenyl]amino]-2-oxo-ethyl]-methyl-amino]-N-(4-nitrophenyl)propanamide
@<TRIPOS>ATOM
      1 C1          1.9252    1.6381    1.2514 C.3       1 <0>        -0.1837
      2 C2          1.1257    2.0589    0.0167 C.3       1 <0>         0.0118
      3 H1          1.6586    1.7519   -0.8832 H         1 <0>         0.1712
      4 C3         -0.2295    1.4005    0.0473 C.2       1 <0>         0.5091
      5 O1         -1.2338    2.0804    0.0601 O.2       1 <0>        -0.4961
      6 N1         -0.3256    0.0562    0.0547 N.am      1 <0>        -0.6461
      7 C4         -1.5780   -0.5550    0.1800 C.ar      1 <0>         0.1726
      8 C5         -1.7033   -1.7478    0.8801 C.ar      1 <0>        -0.1304
      9 C6         -2.9417   -2.3460    1.0061 C.ar      1 <0>        -0.0318
     10 C7         -4.0545   -1.7641    0.4270 C.ar      1 <0>        -0.0436
     11 C8         -3.9322   -0.5791   -0.2752 C.ar      1 <0>        -0.0333
     12 C9         -2.6975    0.0269   -0.4003 C.ar      1 <0>        -0.1168
     13 N2         -5.3794   -2.4106    0.5596 N.pl3     1 <0>         0.0210
     14 O2         -6.3604   -1.8989    0.0504 O.2       1 <0>        -0.1473
     15 O3         -5.4885   -3.4544    1.1778 O.3       1 <0>        -0.1463
     16 C10         0.3746    3.9845    1.2779 C.3       1 <0>        -0.0660
     17 C11         2.2389    4.1922   -0.2532 C.3       1 <0>        -0.0261
     18 C12         1.9930    5.6598   -0.4915 C.2       1 <0>         0.5039
     19 O4          0.8643    6.1012   -0.4434 O.2       1 <0>        -0.5024
     20 N3          3.0273    6.4818   -0.7580 N.am      1 <0>        -0.6430
     21 C13         2.8125    7.8593   -0.8820 C.ar      1 <0>         0.1221
     22 C14         1.6369    8.3316   -1.4512 C.ar      1 <0>        -0.0701
     23 C15         1.4254    9.6912   -1.5680 C.ar      1 <0>        -0.0899
     24 C16         2.3882   10.5828   -1.1281 C.ar      1 <0>         0.0062
     25 C17         3.5625   10.1149   -0.5655 C.ar      1 <0>        -0.1564
     26 C18         3.7767    8.7559   -0.4415 C.ar      1 <0>        -0.0726
     27 C19         4.6084   11.0886   -0.0871 C.3       1 <0>         0.5097
     28 F1          5.6962   10.3835    0.4390 F         1 <0>        -0.1731
     29 F2          5.0383   11.8760   -1.1607 F         1 <0>        -0.1635
     30 F3          4.0618   11.9104    0.9044 F         1 <0>        -0.1640
     31 Cl1         2.1218   12.2914   -1.2819 Cl        1 <0>        -0.0218
     32 H2          2.0474    0.5550    1.2533 H         1 <0>         0.1144
     33 H3          2.9054    2.1143    1.2293 H         1 <0>         0.1015
     34 H4          1.3923    1.9452    2.1513 H         1 <0>         0.0957
     35 H5          0.4735   -0.4876   -0.0268 H         1 <0>         0.4263
     36 H6         -0.8338   -2.2051    1.3288 H         1 <0>         0.1556
     37 H7         -3.0405   -3.2714    1.5542 H         1 <0>         0.1658
     38 H8         -4.8031   -0.1272   -0.7266 H         1 <0>         0.1635
     39 H9         -2.6027    0.9526   -0.9486 H         1 <0>         0.1609
     40 H10         1.0281    3.7080    2.1053 H         1 <0>         0.1245
     41 H11         0.2636    5.0685    1.2492 H         1 <0>         0.1410
     42 H12        -0.6029    3.5227    1.4169 H         1 <0>         0.1392
     43 H13         2.9007    4.0692    0.6041 H         1 <0>         0.1701
     44 H14         2.7031    3.7534   -1.1364 H         1 <0>         0.1668
     45 H15         3.9205    6.1187   -0.8639 H         1 <0>         0.4252
     46 H16         0.8873    7.6362   -1.7987 H         1 <0>         0.1573
     47 H17         0.5098   10.0590   -2.0071 H         1 <0>         0.1574
     48 H18         4.6936    8.3912   -0.0026 H         1 <0>         0.1561
     49 N4          0.9428    3.5255   -0.0071 N.4       1 <0>        -0.3694
     50 H19         0.2937    3.7684   -0.7646 H         1 <0>         0.4447
@<TRIPOS>BOND
     1    1    2 1
     2    1   32 1
     3    1   33 1
     4    1   34 1
     5    2    3 1
     6    2    4 1
     7    2   49 1
     8    4    5 2
     9    4    6 am
    10    6    7 1
    11    6   35 1
    12    7   12 ar
    13    7    8 ar
    14    8    9 ar
    15    8   36 1
    16    9   10 ar
    17    9   37 1
    18   10   11 ar
    19   10   13 1
    20   11   12 ar
    21   11   38 1
    22   12   39 1
    23   13   14 2
    24   13   15 1
    25   16   40 1
    26   16   41 1
    27   16   42 1
    28   16   49 1
    29   17   18 1
    30   17   43 1
    31   17   44 1
    32   17   49 1
    33   18   19 2
    34   18   20 am
    35   20   21 1
    36   20   45 1
    37   21   26 ar
    38   21   22 ar
    39   22   23 ar
    40   22   46 1
    41   23   24 ar
    42   23   47 1
    43   24   25 ar
    44   24   31 1
    45   25   26 ar
    46   25   27 1
    47   26   48 1
    48   27   28 1
    49   27   29 1
    50   27   30 1
    51   49   50 1
@<TRIPOS>MOLECULE
ZINC34852011
   68    70     0     0     0
SMALL
USER_CHARGES

@<TRIPOS>ATOM
      1 C1          1.5456   -1.9006   -0.4291 C.3       1 <0>        -0.1535
      2 C2          0.8010   -3.1987   -0.1110 C.3       1 <0>         0.0563
      3 O1         -0.6076   -2.9607   -0.1463 O.3       1 <0>        -0.3440
      4 C3         -1.4128   -4.0111    0.1141 C.2       1 <0>         0.5243
      5 O2         -0.9309   -5.0995    0.3643 O.2       1 <0>        -0.4873
      6 C4         -2.8672   -3.8410    0.0956 C.2       1 <0>        -0.1764
      7 C5         -3.6379   -4.0437   -1.1192 C.2       1 <0>        -0.0630
      8 C6         -4.9655   -3.8477   -0.9704 C.2       1 <0>        -0.1939
      9 S1         -5.1672   -3.4103    0.7315 S.3       1 <0>         0.3045
     10 C7         -3.5680   -3.4851    1.2385 C.2       1 <0>         0.0028
     11 N1         -3.0640   -3.2446    2.5070 N.am      1 <0>        -0.5929
     12 C8         -3.8976   -2.9059    3.5104 C.2       1 <0>         0.4982
     13 O3         -5.0889   -2.8115    3.3032 O.2       1 <0>        -0.4803
     14 C9         -3.3496   -2.6444    4.8896 C.3       1 <0>         0.0143
     15 H1         -2.4773   -3.2755    5.0596 H         1 <0>         0.1663
     16 C10        -2.9456   -1.1734    5.0075 C.3       1 <0>        -0.1853
     17 N2         -4.3789   -2.9513    5.8918 N.4       1 <0>        -0.3603
     18 C11        -4.7220   -4.3779    5.8203 C.3       1 <0>        -0.0658
     19 C12        -3.8662   -2.6376    7.2322 C.3       1 <0>        -0.0352
     20 C13        -4.9616   -2.8356    8.2480 C.2       1 <0>         0.5006
     21 O4         -6.0612   -3.2020    7.8906 O.2       1 <0>        -0.5093
     22 N3         -4.7194   -2.6055    9.5537 N.am      1 <0>        -0.6376
     23 C14        -5.7617   -2.6944   10.4859 C.ar      1 <0>         0.0716
     24 C15        -5.8079   -1.8178   11.5616 C.ar      1 <0>        -0.0855
     25 C16        -6.8357   -1.9056   12.4797 C.ar      1 <0>        -0.1341
     26 C17        -7.8216   -2.8696   12.3275 C.ar      1 <0>         0.1379
     27 C18        -7.7757   -3.7460   11.2532 C.ar      1 <0>        -0.1942
     28 C19        -6.7518   -3.6553   10.3310 C.ar      1 <0>        -0.0675
     29 O5         -8.8331   -2.9558   13.2321 O.3       1 <0>        -0.3116
     30 C20        -9.8139   -3.9719   13.0137 C.3       1 <0>         0.0236
     31 C21        -6.0180   -3.9766   -2.0280 C.3       1 <0>        -0.0365
     32 C22        -5.3247   -3.9976   -3.3982 C.3       1 <0>        -0.0866
     33 H2         -4.9449   -3.0027   -3.6305 H         1 <0>         0.0787
     34 C23        -4.1614   -4.9923   -3.3499 C.3       1 <0>        -0.1161
     35 C24        -3.0429   -4.4428   -2.4616 C.3       1 <0>        -0.0647
     36 C25        -6.3257   -4.4277   -4.4724 C.3       1 <0>        -0.1497
     37 H3          2.6201   -2.0821   -0.4022 H         1 <0>         0.0849
     38 H4          1.2607   -1.5522   -1.4219 H         1 <0>         0.0705
     39 H5          1.2866   -1.1426    0.3101 H         1 <0>         0.0655
     40 H6          1.0600   -3.9567   -0.8503 H         1 <0>         0.0731
     41 H7          1.0858   -3.5471    0.8817 H         1 <0>         0.0676
     42 H8         -2.1112   -3.3201    2.6727 H         1 <0>         0.4247
     43 H9         -3.8179   -0.5423    4.8374 H         1 <0>         0.0980
     44 H10        -2.5492   -0.9843    6.0051 H         1 <0>         0.1040
     45 H11        -2.1819   -0.9457    4.2638 H         1 <0>         0.1170
     46 H12        -3.8665   -4.9737    6.1384 H         1 <0>         0.1241
     47 H13        -5.5697   -4.5810    6.4747 H         1 <0>         0.1507
     48 H14        -4.9844   -4.6375    4.7947 H         1 <0>         0.1258
     49 H15        -3.0308   -3.2978    7.4653 H         1 <0>         0.1668
     50 H16        -3.5289   -1.6014    7.2588 H         1 <0>         0.1688
     51 H17        -3.8235   -2.3784    9.8482 H         1 <0>         0.4194
     52 H18        -5.0401   -1.0677   11.6806 H         1 <0>         0.1375
     53 H19        -6.8718   -1.2238   13.3165 H         1 <0>         0.1431
     54 H20        -8.5431   -4.4967   11.1357 H         1 <0>         0.1374
     55 H21        -6.7189   -4.3345    9.4920 H         1 <0>         0.1386
     56 H22       -10.2961   -3.8102   12.0497 H         1 <0>         0.0590
     57 H23        -9.3317   -4.9495   13.0194 H         1 <0>         0.0593
     58 H24       -10.5618   -3.9311   13.8055 H         1 <0>         0.1074
     59 H25        -6.5730   -4.9034   -1.8828 H         1 <0>         0.0899
     60 H26        -6.6992   -3.1275   -1.9738 H         1 <0>         0.0873
     61 H27        -4.5128   -5.9410   -2.9443 H         1 <0>         0.0696
     62 H28        -3.7783   -5.1507   -4.3580 H         1 <0>         0.0773
     63 H29        -2.5941   -3.5703   -2.9365 H         1 <0>         0.0852
     64 H30        -2.2844   -5.2110   -2.3115 H         1 <0>         0.0775
     65 H31        -7.1569   -3.7230   -4.4975 H         1 <0>         0.0601
     66 H32        -5.8321   -4.4420   -5.4442 H         1 <0>         0.0620
     67 H33        -6.7012   -5.4244   -4.2409 H         1 <0>         0.0587
     68 H34        -5.2024   -2.3978    5.7086 H         1 <0>         0.4419
@<TRIPOS>BOND
     1    1    2 1
     2    1   37 1
     3    1   38 1
     4    1   39 1
     5    2    3 1
     6    2   40 1
     7    2   41 1
     8    3    4 1
     9    4    5 2
    10    4    6 1
    11    6   10 2
    12    6    7 1
    13    7   35 1
    14    7    8 2
    15    8    9 1
    16    8   31 1
    17    9   10 1
    18   10   11 1
    19   11   12 am
    20   11   42 1
    21   12   13 2
    22   12   14 1
    23   14   15 1
    24   14   16 1
    25   14   17 1
    26   16   43 1
    27   16   44 1
    28   16   45 1
    29   17   18 1
    30   17   19 1
    31   17   68 1
    32   18   46 1
    33   18   47 1
    34   18   48 1
    35   19   20 1
    36   19   49 1
    37   19   50 1
    38   20   21 2
    39   20   22 am
    40   22   23 1
    41   22   51 1
    42   23   28 ar
    43   23   24 ar
    44   24   25 ar
    45   24   52 1
    46   25   26 ar
    47   25   53 1
    48   26   27 ar
    49   26   29 1
    50   27   28 ar
    51   27   54 1
    52   28   55 1
    53   29   30 1
    54   30   56 1
    55   30   57 1
    56   30   58 1
    57   31   32 1
    58   31   59 1
    59   31   60 1
    60   32   33 1
    61   32   34 1
    62   32   36 1
    63   34   35 1
    64   34   61 1
    65   34   62 1
    66   35   63 1
    67   35   64 1
    68   36   65 1
    69   36   66 1
    70   36   67 1
@<TRIPOS>MOLECULE
ZINC39638348
   71    74     0     0     0
SMALL
USER_CHARGES

@<TRIPOS>ATOM
      1 C1          1.5318    1.7856    1.3666 C.3       1 <0>        -0.1554
      2 C2          1.8103    0.3067    1.6424 C.3       1 <0>         0.0523
      3 O1          0.7517   -0.4863    1.1014 O.3       1 <0>        -0.3089
      4 C3          0.8455   -1.8307    1.2612 C.ar      1 <0>         0.1662
      5 C4          1.9346   -2.3747    1.9319 C.ar      1 <0>        -0.2189
      6 C5          2.0334   -3.7383    2.0961 C.ar      1 <0>        -0.0509
      7 C6          1.0366   -4.5754    1.5878 C.ar      1 <0>        -0.1778
      8 C7         -0.0569   -4.0245    0.9145 C.ar      1 <0>        -0.0150
      9 C8         -0.1508   -2.6596    0.7587 C.ar      1 <0>        -0.1587
     10 C9          1.1388   -6.0376    1.7611 C.2       1 <0>         0.6002
     11 O2          0.5715   -6.7828    0.9858 O.2       1 <0>        -0.5325
     12 N1          1.8611   -6.5467    2.7788 N.am      1 <0>        -0.6152
     13 C10         2.5110   -5.8106    3.8886 C.3       1 <0>         0.1077
     14 C11         2.2842   -6.6993    5.1321 C.3       1 <0>        -0.1148
     15 H1          3.1602   -6.6756    5.7804 H         1 <0>         0.1164
     16 C12         2.0726   -8.1148    4.5694 C.3       1 <0>        -0.0717
     17 C13         2.1792   -7.9703    3.0443 C.3       1 <0>         0.1081
     18 C14         3.1541   -9.0572    5.0888 C.3       1 <0>        -0.1342
     19 C15         2.8889  -10.4705    4.5624 C.3       1 <0>        -0.0097
     20 N2          1.5647  -10.9204    5.0082 N.4       1 <0>        -0.5046
     21 C16         0.5235  -10.0633    4.4284 C.3       1 <0>        -0.0093
     22 C17         0.6886   -8.6328    4.9492 C.3       1 <0>        -0.1463
     23 C18         1.0618   -6.2438    5.8866 C.2       1 <0>         0.5153
     24 O3          0.1049   -5.8064    5.2834 O.2       1 <0>        -0.5167
     25 N3          1.0319   -6.3226    7.2317 N.am      1 <0>        -0.7171
     26 C19        -0.1564   -5.8798    7.9652 C.3       1 <0>         0.1692
     27 C20         0.0652   -6.0718    9.4434 C.ar      1 <0>        -0.0990
     28 C21        -0.4688   -7.1742   10.0852 C.ar      1 <0>        -0.1294
     29 C22        -0.2675   -7.3532   11.4408 C.ar      1 <0>        -0.0824
     30 C23         0.4684   -6.4305   12.1614 C.ar      1 <0>        -0.1873
     31 C24         1.0060   -5.3240   11.5247 C.ar      1 <0>         0.1145
     32 C25         0.8085   -5.1469   10.1582 C.ar      1 <0>         0.0803
     33 O4          1.3390   -4.0651    9.5275 O.3       1 <0>        -0.3235
     34 C26         0.5325   -2.8867    9.4714 C.3       1 <0>         0.0343
     35 O5          1.7299   -4.4156   12.2319 O.3       1 <0>        -0.3043
     36 C27         1.8967   -4.6650   13.6291 C.3       1 <0>         0.0224
     37 H2          0.5890    2.0710    1.8334 H         1 <0>         0.0686
     38 H3          2.3393    2.3905    1.7792 H         1 <0>         0.0823
     39 H4          1.4687    1.9490    0.2908 H         1 <0>         0.0692
     40 H5          2.7531    0.0213    1.1756 H         1 <0>         0.0659
     41 H6          1.8734    0.1433    2.7182 H         1 <0>         0.0650
     42 H7          2.7045   -1.7271    2.3245 H         1 <0>         0.1356
     43 H8          2.8803   -4.1603    2.6168 H         1 <0>         0.1327
     44 H9         -0.8293   -4.6682    0.5201 H         1 <0>         0.1408
     45 H10        -0.9977   -2.2327    0.2420 H         1 <0>         0.1416
     46 H11         3.5772   -5.6940    3.6942 H         1 <0>         0.0907
     47 H12         2.0402   -4.8372    4.0261 H         1 <0>         0.1044
     48 H13         1.4572   -8.6201    2.5499 H         1 <0>         0.0892
     49 H14         3.1911   -8.2023    2.7121 H         1 <0>         0.0843
     50 H15         4.1300   -8.7171    4.7425 H         1 <0>         0.1217
     51 H16         3.1367   -9.0655    6.1786 H         1 <0>         0.0976
     52 H17         2.9226  -10.4644    3.4730 H         1 <0>         0.1330
     53 H18         3.6509  -11.1494    4.9452 H         1 <0>         0.1395
     54 H19         1.4174  -11.8736    4.7118 H         1 <0>         0.4337
     55 H20         0.6135  -10.0669    3.3421 H         1 <0>         0.1347
     56 H21        -0.4583  -10.4421    4.7124 H         1 <0>         0.1379
     57 H22         0.5826   -8.6260    6.0340 H         1 <0>         0.0935
     58 H23        -0.0739   -7.9933    4.5045 H         1 <0>         0.1270
     59 H24         1.7973   -6.6724    7.7142 H         1 <0>         0.4022
     60 H25        -0.3386   -4.8251    7.7591 H         1 <0>         0.0809
     61 H26        -1.0187   -6.4662    7.6479 H         1 <0>         0.0802
     62 H27        -1.0446   -7.8967    9.5259 H         1 <0>         0.1289
     63 H28        -0.6861   -8.2155   11.9384 H         1 <0>         0.1331
     64 H29         0.6236   -6.5723   13.2208 H         1 <0>         0.1376
     65 H30        -0.3960   -3.1067    8.9447 H         1 <0>         0.0456
     66 H31         0.3056   -2.5533   10.4840 H         1 <0>         0.0509
     67 H32         1.0729   -2.1015    8.9428 H         1 <0>         0.0971
     68 H33         2.4919   -3.8666   14.0722 H         1 <0>         0.1066
     69 H34         0.9197   -4.7001   14.1111 H         1 <0>         0.0589
     70 H35         2.4057   -5.6186   13.7697 H         1 <0>         0.0587
     71 H36         1.5159  -10.8725    6.0148 H         1 <0>         0.4272
@<TRIPOS>BOND
     1    1    2 1
     2    1   37 1
     3    1   38 1
     4    1   39 1
     5    2    3 1
     6    2   40 1
     7    2   41 1
     8    3    4 1
     9    4    9 ar
    10    4    5 ar
    11    5    6 ar
    12    5   42 1
    13    6    7 ar
    14    6   43 1
    15    7    8 ar
    16    7   10 1
    17    8    9 ar
    18    8   44 1
    19    9   45 1
    20   10   11 2
    21   10   12 am
    22   12   17 1
    23   12   13 1
    24   13   14 1
    25   13   46 1
    26   13   47 1
    27   14   15 1
    28   14   16 1
    29   14   23 1
    30   16   22 1
    31   16   17 1
    32   16   18 1
    33   17   48 1
    34   17   49 1
    35   18   19 1
    36   18   50 1
    37   18   51 1
    38   19   20 1
    39   19   52 1
    40   19   53 1
    41   20   21 1
    42   20   54 1
    43   20   71 1
    44   21   22 1
    45   21   55 1
    46   21   56 1
    47   22   57 1
    48   22   58 1
    49   23   24 2
    50   23   25 am
    51   25   26 1
    52   25   59 1
    53   26   27 1
    54   26   60 1
    55   26   61 1
    56   27   32 ar
    57   27   28 ar
    58   28   29 ar
    59   28   62 1
    60   29   30 ar
    61   29   63 1
    62   30   31 ar
    63   30   64 1
    64   31   32 ar
    65   31   35 1
    66   32   33 1
    67   33   34 1
    68   34   65 1
    69   34   66 1
    70   34   67 1
    71   35   36 1
    72   36   68 1
    73   36   69 1
    74   36   70 1
@<TRIPOS>MOLECULE
ZINC11053601
   67    69     0     0     0
SMALL
USER_CHARGES

@<TRIPOS>ATOM
      1 C1         -1.6814    0.6025   -1.7880 C.3       1 <0>        -0.1547
      2 C2         -1.5087   -0.9033   -1.5789 C.3       1 <0>         0.0544
      3 O1         -0.6881   -1.1339   -0.4320 O.3       1 <0>        -0.3155
      4 C3         -0.4347   -2.4284   -0.1049 C.ar      1 <0>         0.1337
      5 C4         -0.9603   -3.4555   -0.8754 C.ar      1 <0>        -0.2066
      6 C5         -0.7009   -4.7705   -0.5411 C.ar      1 <0>        -0.0747
      7 C6          0.0815   -5.0635    0.5606 C.ar      1 <0>        -0.1318
      8 C7          0.6061   -4.0418    1.3304 C.ar      1 <0>        -0.0762
      9 C8          0.3547   -2.7250    0.9966 C.ar      1 <0>        -0.1508
     10 C9          0.3625   -6.4990    0.9233 C.3       1 <0>        -0.0745
     11 C10         1.6361   -6.9642    0.2146 C.3       1 <0>        -0.1104
     12 C11         1.9214   -8.4216    0.5828 C.3       1 <0>        -0.1013
     13 C12         2.2419   -8.5189    2.0771 C.3       1 <0>        -0.1432
     14 C13         2.6036   -9.9650    2.4225 C.3       1 <0>        -0.0103
     15 N1          3.7749  -10.3802    1.6413 N.4       1 <0>        -0.3723
     16 C14         3.4520  -10.3581    0.2096 C.3       1 <0>        -0.0114
     17 C15         3.1229   -8.9271   -0.2209 C.3       1 <0>        -0.1370
     18 C16         4.1654  -11.7411    2.0328 C.3       1 <0>        -0.0179
     19 H1          3.3390  -12.4255    1.8411 H         1 <0>         0.1838
     20 C17         4.5113  -11.7637    3.5230 C.3       1 <0>        -0.1640
     21 C18         5.3680  -12.1687    1.2314 C.2       1 <0>         0.4357
     22 O2          6.0695  -11.3339    0.6966 O.2       1 <0>        -0.5049
     23 C19         5.6789  -13.5392    1.1024 C.2       1 <0>        -0.4623
     24 C20         6.8680  -13.9579    0.4806 C.2       1 <0>         0.5796
     25 N2          7.1253  -15.2954    0.3798 N.am      1 <0>        -0.5389
     26 C21         6.2677  -16.2089    0.8607 C.2       1 <0>         0.7078
     27 O3          6.5427  -17.3873    0.7463 O.2       1 <0>        -0.5016
     28 N3          5.1171  -15.8690    1.4642 N.am      1 <0>        -0.5545
     29 C22         4.7735  -14.5737    1.6190 C.2       1 <0>         0.5869
     30 O4          3.7324  -14.2688    2.1711 O.2       1 <0>        -0.5125
     31 C23         4.2266  -16.9183    1.9663 C.3       1 <0>         0.0744
     32 C24         8.3618  -15.7418   -0.2666 C.3       1 <0>         0.0576
     33 N4          7.7482  -13.0455   -0.0133 N.pl3     1 <0>        -0.7839
     34 H2         -0.7051    1.0623   -1.9414 H         1 <0>         0.0676
     35 H3         -2.3073    0.7784   -2.6628 H         1 <0>         0.0813
     36 H4         -2.1546    1.0395   -0.9087 H         1 <0>         0.0681
     37 H5         -2.4850   -1.3631   -1.4255 H         1 <0>         0.0632
     38 H6         -1.0354   -1.3403   -2.4582 H         1 <0>         0.0625
     39 H7         -1.5721   -3.2271   -1.7356 H         1 <0>         0.1287
     40 H8         -1.1099   -5.5704   -1.1406 H         1 <0>         0.1231
     41 H9          1.2167   -4.2733    2.1906 H         1 <0>         0.1263
     42 H10         0.7684   -1.9272    1.5956 H         1 <0>         0.1317
     43 H11         0.4960   -6.5818    2.0019 H         1 <0>         0.0720
     44 H12        -0.4752   -7.1231    0.6120 H         1 <0>         0.0727
     45 H13         1.5026   -6.8814   -0.8641 H         1 <0>         0.0741
     46 H14         2.4738   -6.3401    0.5259 H         1 <0>         0.0707
     47 H15         1.0478   -9.0326    0.3557 H         1 <0>         0.0901
     48 H16         3.0834   -7.8671    2.3121 H         1 <0>         0.0886
     49 H17         1.3710   -8.2131    2.6569 H         1 <0>         0.1147
     50 H18         2.8322  -10.0379    3.4858 H         1 <0>         0.1327
     51 H19         1.7614  -10.6158    2.1874 H         1 <0>         0.1298
     52 H20         4.3069  -10.7212   -0.3609 H         1 <0>         0.1315
     53 H21         2.5917  -11.0005    0.0217 H         1 <0>         0.1252
     54 H22         2.8817   -8.9131   -1.2838 H         1 <0>         0.1100
     55 H23         3.9827   -8.2838   -0.0337 H         1 <0>         0.0885
     56 H24         5.3377  -11.0793    3.7146 H         1 <0>         0.0788
     57 H25         3.6415  -11.4544    4.1026 H         1 <0>         0.0933
     58 H26         4.8011  -12.7735    3.8134 H         1 <0>         0.1078
     59 H27         4.6635  -17.8952    1.7597 H         1 <0>         0.1066
     60 H28         4.0949  -16.7992    3.0417 H         1 <0>         0.0873
     61 H29         3.2587  -16.8411    1.4710 H         1 <0>         0.0868
     62 H30         9.1514  -15.8280    0.4799 H         1 <0>         0.0959
     63 H31         8.1971  -16.7122   -0.7349 H         1 <0>         0.1171
     64 H32         8.6570  -15.0175   -1.0257 H         1 <0>         0.0914
     65 H33         7.6754  -12.1130    0.2436 H         1 <0>         0.4411
     66 H34         8.4484  -13.3275   -0.6225 H         1 <0>         0.4166
     67 H35         4.5400   -9.7477    1.8223 H         1 <0>         0.4215
@<TRIPOS>BOND
     1    1    2 1
     2    1   34 1
     3    1   35 1
     4    1   36 1
     5    2    3 1
     6    2   37 1
     7    2   38 1
     8    3    4 1
     9    4    9 ar
    10    4    5 ar
    11    5    6 ar
    12    5   39 1
    13    6    7 ar
    14    6   40 1
    15    7    8 ar
    16    7   10 1
    17    8    9 ar
    18    8   41 1
    19    9   42 1
    20   10   11 1
    21   10   43 1
    22   10   44 1
    23   11   12 1
    24   11   45 1
    25   11   46 1
    26   12   17 1
    27   12   13 1
    28   12   47 1
    29   13   14 1
    30   13   48 1
    31   13   49 1
    32   14   15 1
    33   14   50 1
    34   14   51 1
    35   15   16 1
    36   15   18 1
    37   15   67 1
    38   16   17 1
    39   16   52 1
    40   16   53 1
    41   17   54 1
    42   17   55 1
    43   18   19 1
    44   18   20 1
    45   18   21 1
    46   20   56 1
    47   20   57 1
    48   20   58 1
    49   21   22 2
    50   21   23 1
    51   23   29 1
    52   23   24 2
    53   24   25 1
    54   24   33 1
    55   25   26 am
    56   25   32 1
    57   26   27 2
    58   26   28 am
    59   28   29 am
    60   28   31 1
    61   29   30 2
    62   31   59 1
    63   31   60 1
    64   31   61 1
    65   32   62 1
    66   32   63 1
    67   32   64 1
    68   33   65 1
    69   33   66 1
@<TRIPOS>MOLECULE
ZINC64417736
   62    65     0     0     0
SMALL
USER_CHARGES

@<TRIPOS>ATOM
      1 C1         -0.0173    1.4248    0.0099 C.3       1 <0>         0.0259
      2 O1          0.0021   -0.0041    0.0020 O.3       1 <0>        -0.3169
      3 C2          0.6258   -0.6184    1.0415 C.ar      1 <0>         0.1301
      4 C3          1.2022    0.1384    2.0513 C.ar      1 <0>        -0.2063
      5 C4          1.8353   -0.4884    3.1070 C.ar      1 <0>        -0.0715
      6 C5          1.8951   -1.8688    3.1577 C.ar      1 <0>        -0.1269
      7 C6          1.3218   -2.6253    2.1523 C.ar      1 <0>        -0.0725
      8 C7          0.6822   -2.0034    1.0976 C.ar      1 <0>        -0.1501
      9 C8          2.5867   -2.5500    4.3104 C.3       1 <0>        -0.0848
     10 C9          1.5771   -2.8076    5.4307 C.3       1 <0>         0.1222
     11 N1          2.2495   -3.4698    6.5513 N.am      1 <0>        -0.7304
     12 C10         1.5524   -3.7963    7.6576 C.2       1 <0>         0.5123
     13 O2          0.3685   -3.5420    7.7255 O.2       1 <0>        -0.5368
     14 C11         2.2440   -4.4775    8.8103 C.3       1 <0>        -0.1418
     15 C12         1.2344   -4.7351    9.9306 C.3       1 <0>        -0.1042
     16 C13         1.9366   -5.4267   11.1009 C.3       1 <0>         0.0916
     17 H1          2.8034   -4.8491   11.4220 H         1 <0>         0.1381
     18 C14         0.9748   -5.6310   12.2545 C.2       1 <0>         0.5293
     19 O3          0.3919   -4.7733   12.8826 O.2       1 <0>        -0.4520
     20 N2          0.9018   -6.9644   12.4363 N.am      1 <0>        -0.5799
     21 C15         1.6757   -7.6240   11.5669 C.2       1 <0>         0.7030
     22 O4          1.7758   -8.8349   11.5351 O.2       1 <0>        -0.5365
     23 N3          2.3344   -6.7959   10.7307 N.am      1 <0>        -0.7185
     24 C16         0.0774   -7.6115   13.4600 C.3       1 <0>         0.1269
     25 C17        -1.3111   -7.9031   12.8873 C.3       1 <0>        -0.1125
     26 C18        -2.1591   -8.5688   13.9404 C.2       1 <0>         0.0712
     27 C19        -3.0335   -7.9683   14.7796 C.ar      1 <0>        -0.1672
     28 C20        -3.4403   -6.5692   14.9572 C.ar      1 <0>        -0.0105
     29 C21        -4.3590   -6.2683   15.9029 C.ar      1 <0>        -0.1515
     30 C22        -4.9307   -7.2565   16.7161 C.ar      1 <0>         0.0560
     31 C23        -4.6076   -8.5630   16.6124 C.ar      1 <0>        -0.2111
     32 C24        -3.6523   -8.9930   15.6505 C.ar      1 <0>         0.3277
     33 N4         -3.1789  -10.1807   15.3610 N.pl3     1 <0>        -0.5850
     34 C25        -2.2095  -10.0443   14.2682 C.3       1 <0>         0.0608
     35 H2          1.0053    1.8021    0.0021 H         1 <0>         0.0570
     36 H3         -0.5445    1.7859   -0.8732 H         1 <0>         0.1029
     37 H4         -0.5275    1.7763    0.9067 H         1 <0>         0.0566
     38 H5          1.1564    1.2167    2.0118 H         1 <0>         0.1299
     39 H6          2.2842    0.1003    3.8934 H         1 <0>         0.1252
     40 H7          1.3701   -3.7035    2.1940 H         1 <0>         0.1293
     41 H8          0.2307   -2.5948    0.3148 H         1 <0>         0.1326
     42 H9          3.0056   -3.4983    3.9736 H         1 <0>         0.0794
     43 H10         3.3874   -1.9109    4.6827 H         1 <0>         0.0791
     44 H11         1.1582   -1.8593    5.7675 H         1 <0>         0.0711
     45 H12         0.7764   -3.4467    5.0584 H         1 <0>         0.0710
     46 H13         3.1963   -3.6733    6.4970 H         1 <0>         0.4027
     47 H14         2.6629   -5.4258    8.4736 H         1 <0>         0.0964
     48 H15         3.0447   -3.8384    9.1826 H         1 <0>         0.1043
     49 H16         0.8155   -3.7869   10.2674 H         1 <0>         0.1027
     50 H17         0.4338   -5.3742    9.5583 H         1 <0>         0.0851
     51 H18         2.9481   -7.0500   10.0238 H         1 <0>         0.4455
     52 H19         0.5471   -8.5458   13.7676 H         1 <0>         0.1090
     53 H20        -0.0164   -6.9510   14.3219 H         1 <0>         0.1074
     54 H21        -1.7808   -6.9688   12.5797 H         1 <0>         0.1153
     55 H22        -1.2173   -8.5636   12.0254 H         1 <0>         0.1203
     56 H23        -3.0121   -5.7917   14.3420 H         1 <0>         0.1620
     57 H24        -4.6598   -5.2395   16.0353 H         1 <0>         0.1583
     58 H25        -5.6593   -6.9605   17.4563 H         1 <0>         0.1610
     59 H26        -5.0769   -9.2857   17.2635 H         1 <0>         0.1605
     60 H27        -2.5391  -10.6115   13.3978 H         1 <0>         0.1760
     61 H28        -1.2285  -10.3906   14.5936 H         1 <0>         0.1753
     62 H29        -3.4305  -11.0114   15.7942 H         1 <0>         0.4561
@<TRIPOS>BOND
     1    1    2 1
     2    1   35 1
     3    1   36 1
     4    1   37 1
     5    2    3 1
     6    3    8 ar
     7    3    4 ar
     8    4    5 ar
     9    4   38 1
    10    5    6 ar
    11    5   39 1
    12    6    7 ar
    13    6    9 1
    14    7    8 ar
    15    7   40 1
    16    8   41 1
    17    9   10 1
    18    9   42 1
    19    9   43 1
    20   10   11 1
    21   10   44 1
    22   10   45 1
    23   11   12 am
    24   11   46 1
    25   12   13 2
    26   12   14 1
    27   14   15 1
    28   14   47 1
    29   14   48 1
    30   15   16 1
    31   15   49 1
    32   15   50 1
    33   16   17 1
    34   16   23 1
    35   16   18 1
    36   18   19 2
    37   18   20 am
    38   20   21 am
    39   20   24 1
    40   21   22 2
    41   21   23 am
    42   23   51 1
    43   24   25 1
    44   24   52 1
    45   24   53 1
    46   25   26 1
    47   25   54 1
    48   25   55 1
    49   26   34 1
    50   26   27 2
    51   27   32 ar
    52   27   28 ar
    53   28   29 ar
    54   28   56 1
    55   29   30 ar
    56   29   57 1
    57   30   31 ar
    58   30   58 1
    59   31   32 ar
    60   31   59 1
    61   32   33 2
    62   33   34 1
    63   33   62 1
    64   34   60 1
    65   34   61 1
@<TRIPOS>MOLECULE
ZINC06442790
   69    71     0     0     0
SMALL
USER_CHARGES
4-amino-N'-[(1S)-1-(4-dimethylaminophenyl)-2-(2-methoxyethylamino)-2-oxo-ethyl]-N'-(2,3-dimethylphenyl)isothiazole-3,5-dicarboxamide
@<TRIPOS>ATOM
      1 C1          6.9733   -1.9303    0.6858 C.3       1 <0>        -0.1176
      2 C2          5.6348   -1.2380    0.6911 C.ar      1 <0>        -0.0768
      3 C3          4.4894   -1.9512    0.9951 C.ar      1 <0>        -0.1006
      4 C4          3.2594   -1.3197    1.0016 C.ar      1 <0>        -0.1137
      5 C5          3.1708    0.0263    0.7043 C.ar      1 <0>        -0.1086
      6 C6          4.3189    0.7453    0.3987 C.ar      1 <0>         0.1250
      7 C7          5.5532    0.1078    0.3930 C.ar      1 <0>        -0.0594
      8 C8          6.8017    0.8843    0.0624 C.3       1 <0>        -0.1193
      9 N1          4.2327    2.1080    0.0968 N.am      1 <0>        -0.5474
     10 C9          4.1155    2.5435   -1.2971 C.3       1 <0>         0.1933
     11 H1          4.9198    3.2419   -1.5284 H         1 <0>         0.1084
     12 C10         4.2125    1.3463   -2.2072 C.ar      1 <0>        -0.1636
     13 C11         3.2838    0.3267   -2.1072 C.ar      1 <0>        -0.0325
     14 C12         3.3664   -0.7692   -2.9436 C.ar      1 <0>        -0.1949
     15 C13         4.3907   -0.8518   -3.8784 C.ar      1 <0>         0.2328
     16 C14         5.3253    0.1716   -3.9723 C.ar      1 <0>        -0.2000
     17 C15         5.2334    1.2673   -3.1367 C.ar      1 <0>        -0.0454
     18 N2          4.4808   -1.9616   -4.7216 N.pl3     1 <0>        -0.6354
     19 C16         5.6307   -2.1095   -5.6173 C.3       1 <0>         0.0918
     20 C17         3.4256   -2.9778   -4.7104 C.3       1 <0>         0.0882
     21 C18         2.7860    3.2231   -1.5009 C.2       1 <0>         0.5143
     22 O1          2.0125    3.3329   -0.5733 O.2       1 <0>        -0.5208
     23 N3          2.4565    3.7089   -2.7142 N.am      1 <0>        -0.7195
     24 C19         1.1641    4.3695   -2.9124 C.3       1 <0>         0.1254
     25 C20         1.0417    4.8243   -4.3681 C.3       1 <0>         0.0475
     26 O2          1.0167    3.6803   -5.2240 O.3       1 <0>        -0.3872
     27 C21         0.9038    3.9961   -6.6131 C.3       1 <0>         0.0310
     28 C22         4.2574    3.0207    1.0882 C.2       1 <0>         0.6375
     29 O3          4.1824    4.2069    0.8254 O.2       1 <0>        -0.5242
     30 C23         4.3745    2.5856    2.4810 C.2       1 <0>        -0.3836
     31 C24         4.4183    3.3523    3.6471 C.2       1 <0>         0.2720
     32 C25         4.5352    2.5703    4.7963 C.2       1 <0>        -0.0417
     33 N4          4.5900    1.2618    4.6813 N.2       1 <0>        -0.4562
     34 S1          4.4914    0.9363    3.1423 S.3       1 <0>         0.4748
     35 C26         4.5971    3.2046    6.1258 C.2       1 <0>         0.6022
     36 O4          4.5462    4.4155    6.2248 O.2       1 <0>        -0.5432
     37 N5          4.7101    2.4423    7.2315 N.am      1 <0>        -0.8319
     38 N6          4.3534    4.7392    3.6612 N.pl3     1 <0>        -0.8075
     39 H2          7.1741   -2.3252   -0.3101 H         1 <0>         0.0715
     40 H3          7.7520   -1.2177    0.9578 H         1 <0>         0.0706
     41 H4          6.9621   -2.7486    1.4057 H         1 <0>         0.0677
     42 H5          4.5560   -3.0036    1.2283 H         1 <0>         0.1261
     43 H6          2.3664   -1.8805    1.2351 H         1 <0>         0.1293
     44 H7          2.2097    0.5189    0.7092 H         1 <0>         0.1303
     45 H8          7.0385    0.7587   -0.9941 H         1 <0>         0.0772
     46 H9          6.6395    1.9409    0.2754 H         1 <0>         0.0639
     47 H10         7.6301    0.5148    0.6669 H         1 <0>         0.0725
     48 H11         2.4905    0.3893   -1.3770 H         1 <0>         0.1223
     49 H12         2.6382   -1.5632   -2.8680 H         1 <0>         0.1235
     50 H13         6.1226    0.1106   -4.6982 H         1 <0>         0.1243
     51 H14         5.9599    2.0631   -3.2089 H         1 <0>         0.1228
     52 H15         6.4200   -2.6617   -5.1072 H         1 <0>         0.0493
     53 H16         5.3268   -2.6532   -6.5119 H         1 <0>         0.0665
     54 H17         6.0007   -1.1238   -5.8993 H         1 <0>         0.0697
     55 H18         2.6168   -2.6544   -4.0552 H         1 <0>         0.0781
     56 H19         3.0417   -3.1141   -5.7214 H         1 <0>         0.0568
     57 H20         3.8332   -3.9209   -4.3463 H         1 <0>         0.0530
     58 H21         3.0752    3.6211   -3.4561 H         1 <0>         0.4031
     59 H22         0.3598    3.6712   -2.6811 H         1 <0>         0.0755
     60 H23         1.0939    5.2355   -2.2540 H         1 <0>         0.0837
     61 H24         0.1205    5.3931   -4.4948 H         1 <0>         0.0672
     62 H25         1.8947    5.4522   -4.6255 H         1 <0>         0.0575
     63 H26        -0.0202    4.5477   -6.7864 H         1 <0>         0.0424
     64 H27         1.7540    4.6068   -6.9171 H         1 <0>         0.0421
     65 H28         0.8916    3.0747   -7.1954 H         1 <0>         0.0866
     66 H29         4.7506    1.4763    7.1526 H         1 <0>         0.4112
     67 H30         4.7508    2.8595    8.1062 H         1 <0>         0.4086
     68 H31         4.2729    5.2294    2.8281 H         1 <0>         0.4159
     69 H32         4.3887    5.2178    4.5041 H         1 <0>         0.4178
@<TRIPOS>BOND
     1    1    2 1
     2    1   39 1
     3    1   40 1
     4    1   41 1
     5    2    7 ar
     6    2    3 ar
     7    3    4 ar
     8    3   42 1
     9    4    5 ar
    10    4   43 1
    11    5    6 ar
    12    5   44 1
    13    6    7 ar
    14    6    9 1
    15    7    8 1
    16    8   45 1
    17    8   46 1
    18    8   47 1
    19    9   10 1
    20    9   28 am
    21   10   11 1
    22   10   12 1
    23   10   21 1
    24   12   17 ar
    25   12   13 ar
    26   13   14 ar
    27   13   48 1
    28   14   15 ar
    29   14   49 1
    30   15   16 ar
    31   15   18 1
    32   16   17 ar
    33   16   50 1
    34   17   51 1
    35   18   19 1
    36   18   20 1
    37   19   52 1
    38   19   53 1
    39   19   54 1
    40   20   55 1
    41   20   56 1
    42   20   57 1
    43   21   22 2
    44   21   23 am
    45   23   24 1
    46   23   58 1
    47   24   25 1
    48   24   59 1
    49   24   60 1
    50   25   26 1
    51   25   61 1
    52   25   62 1
    53   26   27 1
    54   27   63 1
    55   27   64 1
    56   27   65 1
    57   28   29 2
    58   28   30 1
    59   30   34 1
    60   30   31 2
    61   31   32 1
    62   31   38 1
    63   32   33 2
    64   32   35 1
    65   33   34 1
    66   35   36 2
    67   35   37 am
    68   37   66 1
    69   37   67 1
    70   38   68 1
    71   38   69 1
@<TRIPOS>MOLECULE
ZINC20830356
   43    45     0     0     0
SMALL
USER_CHARGES
2-[[4-amino-5-(2-bromophenyl)-1,2,4-triazol-3-yl]sulfanyl]-N-(4-sulfamoylphenyl)acetamide
@<TRIPOS>ATOM
      1 C1          1.9717    1.7644   -8.1604 C.ar      1 <0>        -0.0999
      2 C2          2.0761    0.5319   -8.7809 C.ar      1 <0>        -0.0976
      3 C3          1.9005   -0.6322   -8.0548 C.ar      1 <0>        -0.0878
      4 C4          1.6252   -0.5712   -6.7031 C.ar      1 <0>        -0.0577
      5 C5          1.5133    0.6696   -6.0724 C.ar      1 <0>         0.0110
      6 C6          1.6918    1.8400   -6.8118 C.ar      1 <0>        -0.1023
      7 C7          1.2131    0.7432   -4.6268 C.2       1 <0>         0.1875
      8 N1          1.7991    0.0585   -3.6724 N.2       1 <0>        -0.2291
      9 N2          1.2957    0.3746   -2.5330 N.2       1 <0>        -0.2796
     10 C8          0.3502    1.2738   -2.6912 C.2       1 <0>         0.1170
     11 N3          0.2670    1.5427   -4.0277 N.pl3     1 <0>        -0.2008
     12 N4         -0.5786    2.4225   -4.6416 N.3       1 <0>        -0.7626
     13 S1         -0.6233    2.0023   -1.4160 S.3       1 <0>         0.0816
     14 C9          0.0635    1.1534    0.0275 C.3       1 <0>        -0.1473
     15 C10        -0.6381    1.6318    1.2725 C.2       1 <0>         0.5382
     16 O1         -1.5161    2.4647    1.1918 O.2       1 <0>        -0.5003
     17 N5         -0.2900    1.1341    2.4756 N.am      1 <0>        -0.6827
     18 C11        -1.0119    1.4966    3.6182 C.ar      1 <0>         0.2129
     19 C12        -0.3675    1.6029    4.8437 C.ar      1 <0>        -0.1660
     20 C13        -1.0816    1.9674    5.9684 C.ar      1 <0>        -0.0034
     21 C14        -2.4392    2.2138    5.8773 C.ar      1 <0>        -0.6808
     22 C15        -3.0850    2.1027    4.6596 C.ar      1 <0>         0.0094
     23 C16        -2.3753    1.7451    3.5300 C.ar      1 <0>        -0.1467
     24 S2         -3.3482    2.6708    7.3160 S.o2      1 <0>         2.6376
     25 O2         -2.4133    3.2367    8.2243 O.2       1 <0>        -0.9870
     26 O3         -4.4950    3.3778    6.8642 O.2       1 <0>        -0.9519
     27 N6         -3.8980    1.2726    8.0125 N.pl3     1 <0>        -1.1628
     28 Br1         1.3937   -2.1637   -5.7101 Br        1 <0>        -0.0206
     29 H1          2.1100    2.6694   -8.7333 H         1 <0>         0.1384
     30 H2          2.2954    0.4787   -9.8371 H         1 <0>         0.1394
     31 H3          1.9830   -1.5909   -8.5452 H         1 <0>         0.1422
     32 H4          1.6106    2.8027   -6.3291 H         1 <0>         0.1335
     33 H5         -1.2940    3.0062   -4.0436 H         1 <0>         0.4508
     34 H6         -0.5442    2.5473   -5.7340 H         1 <0>         0.4487
     35 H7         -0.0820    0.0685   -0.0815 H         1 <0>         0.1365
     36 H8          1.1385    1.3731    0.1050 H         1 <0>         0.1354
     37 H9          0.5616    0.4429    2.5594 H         1 <0>         0.4467
     38 H10         0.6918    1.4055    4.9165 H         1 <0>         0.1395
     39 H11        -0.5800    2.0556    6.9207 H         1 <0>         0.1461
     40 H12        -4.1454    2.2962    4.5917 H         1 <0>         0.1468
     41 H13        -2.8801    1.6593    2.5791 H         1 <0>         0.1454
     42 H14        -4.4732    1.5156    8.9181 H         1 <0>         0.4139
     43 H15        -3.0423    0.6359    8.2815 H         1 <0>         0.4085
@<TRIPOS>BOND
     1    1    6 ar
     2    1    2 ar
     3    1   29 1
     4    2    3 ar
     5    2   30 1
     6    3    4 ar
     7    3   31 1
     8    4    5 ar
     9    4   28 1
    10    5    6 ar
    11    5    7 1
    12    6   32 1
    13    7   11 1
    14    7    8 2
    15    8    9 1
    16    9   10 2
    17   10   11 1
    18   10   13 1
    19   11   12 1
    20   12   33 1
    21   12   34 1
    22   13   14 1
    23   14   15 1
    24   14   35 1
    25   14   36 1
    26   15   16 2
    27   15   17 am
    28   17   18 1
    29   17   37 1
    30   18   23 ar
    31   18   19 ar
    32   19   20 ar
    33   19   38 1
    34   20   21 ar
    35   20   39 1
    36   21   22 ar
    37   21   24 1
    38   22   23 ar
    39   22   40 1
    40   23   41 1
    41   24   25 2
    42   24   26 2
    43   24   27 1
    44   27   42 1
    45   27   43 1
@<TRIPOS>MOLECULE
ZINC04374137
   61    63     0     0     0
SMALL
USER_CHARGES

@<TRIPOS>ATOM
      1 C1         -0.8326    1.0286    0.8095 C.3       1 <0>        -0.1492
      2 C2         -0.4431   -0.3524    0.2783 C.3       1 <0>        -0.1327
      3 C3         -1.6998   -1.0966   -0.1774 C.3       1 <0>        -0.1250
      4 C4         -1.3103   -2.4776   -0.7086 C.3       1 <0>         0.1270
      5 H1         -0.5619   -2.3672   -1.4933 H         1 <0>         0.1285
      6 C5         -2.5298   -3.1621   -1.2701 C.2       1 <0>         0.5063
      7 O1         -3.0198   -4.1044   -0.6846 O.2       1 <0>        -0.5297
      8 N1         -3.0758   -2.7272   -2.4230 N.am      1 <0>        -0.7208
      9 C6         -4.2613   -3.3926   -2.9688 C.3       1 <0>         0.1403
     10 C7         -3.8380   -4.5726   -3.8679 C.3       1 <0>        -0.1354
     11 C8         -4.8656   -4.5548   -5.0268 C.3       1 <0>        -0.1252
     12 C9         -5.0748   -3.0403   -5.2749 C.3       1 <0>        -0.1250
     13 C10        -5.0477   -2.4184   -3.8634 C.3       1 <0>        -0.1312
     14 N2         -0.7577   -3.2827    0.3835 N.am      1 <0>        -0.5809
     15 C11        -1.5327   -3.4835    1.6103 C.3       1 <0>         0.1134
     16 C12        -1.1797   -2.3905    2.6211 C.3       1 <0>         0.0443
     17 H2         -1.5011   -1.4166    2.2519 H         1 <0>         0.0911
     18 C13        -1.8395   -2.6910    3.9905 C.3       1 <0>        -0.1518
     19 C14        -0.8908   -1.9218    4.9499 C.3       1 <0>        -0.1509
     20 C15         0.4790   -2.0855    4.2570 C.3       1 <0>         0.0465
     21 O2          0.2338   -2.3852    2.8765 O.3       1 <0>        -0.3649
     22 C16         0.4637   -3.8388    0.2594 C.2       1 <0>         0.6342
     23 O3          1.0722   -3.7432   -0.7904 O.2       1 <0>        -0.5412
     24 C17         1.0588   -4.5580    1.3876 C.2       1 <0>        -0.3471
     25 C18         2.3340   -5.1115    1.5096 C.2       1 <0>         0.2625
     26 C19         2.5559   -5.7278    2.7395 C.2       1 <0>        -0.0303
     27 N3          1.5970   -5.7391    3.6415 N.2       1 <0>        -0.4454
     28 S1          0.3508   -4.9532    2.9740 S.3       1 <0>         0.4388
     29 C20         3.8547   -6.3630    3.0283 C.2       1 <0>         0.5996
     30 O4          4.7704   -6.2630    2.2343 O.2       1 <0>        -0.5419
     31 N4          4.0272   -7.0544    4.1722 N.am      1 <0>        -0.8325
     32 N5          3.2887   -5.0541    0.5031 N.pl3     1 <0>        -0.8126
     33 H3          0.0627    1.5588    1.1342 H         1 <0>         0.0559
     34 H4         -1.3246    1.5961    0.0196 H         1 <0>         0.0533
     35 H5         -1.5134    0.9146    1.6531 H         1 <0>         0.0514
     36 H6          0.2377   -0.2385   -0.5652 H         1 <0>         0.0646
     37 H7          0.0489   -0.9200    1.0682 H         1 <0>         0.0838
     38 H8         -2.3806   -1.2105    0.6661 H         1 <0>         0.0746
     39 H9         -2.1918   -0.5290   -0.9673 H         1 <0>         0.0809
     40 H10        -2.6839   -1.9735   -2.8912 H         1 <0>         0.4009
     41 H11        -4.8958   -3.7494   -2.1574 H         1 <0>         0.0923
     42 H12        -2.8291   -4.4180   -4.2503 H         1 <0>         0.0703
     43 H13        -3.8990   -5.5119   -3.3184 H         1 <0>         0.0705
     44 H14        -4.4561   -5.0386   -5.9135 H         1 <0>         0.0694
     45 H15        -5.7988   -5.0290   -4.7228 H         1 <0>         0.0696
     46 H16        -4.2656   -2.6382   -5.8845 H         1 <0>         0.0675
     47 H17        -6.0383   -2.8614   -5.7521 H         1 <0>         0.0691
     48 H18        -6.0640   -2.3030   -3.4866 H         1 <0>         0.0755
     49 H19        -4.5473   -1.4505   -3.8914 H         1 <0>         0.0714
     50 H20        -2.5970   -3.4352    1.3798 H         1 <0>         0.1181
     51 H21        -1.2966   -4.4598    2.0336 H         1 <0>         0.0789
     52 H22        -2.8523   -2.2905    4.0350 H         1 <0>         0.0898
     53 H23        -1.8320   -3.7598    4.2041 H         1 <0>         0.0830
     54 H24        -1.1710   -0.8703    5.0118 H         1 <0>         0.0791
     55 H25        -0.8829   -2.3812    5.9383 H         1 <0>         0.0849
     56 H26         1.0472   -1.1588    4.3375 H         1 <0>         0.0704
     57 H27         1.0329   -2.9017    4.7209 H         1 <0>         0.0667
     58 H28         3.2968   -7.1342    4.8055 H         1 <0>         0.4108
     59 H29         4.8817   -7.4723    4.3623 H         1 <0>         0.4083
     60 H30         3.1395   -4.4954   -0.2756 H         1 <0>         0.4138
     61 H31         4.1049   -5.5728    0.5787 H         1 <0>         0.4162
@<TRIPOS>BOND
     1    1    2 1
     2    1   33 1
     3    1   34 1
     4    1   35 1
     5    2    3 1
     6    2   36 1
     7    2   37 1
     8    3    4 1
     9    3   38 1
    10    3   39 1
    11    4    5 1
    12    4    6 1
    13    4   14 1
    14    6    7 2
    15    6    8 am
    16    8    9 1
    17    8   40 1
    18    9   13 1
    19    9   10 1
    20    9   41 1
    21   10   11 1
    22   10   42 1
    23   10   43 1
    24   11   12 1
    25   11   44 1
    26   11   45 1
    27   12   13 1
    28   12   46 1
    29   12   47 1
    30   13   48 1
    31   13   49 1
    32   14   15 1
    33   14   22 am
    34   15   16 1
    35   15   50 1
    36   15   51 1
    37   16   17 1
    38   16   21 1
    39   16   18 1
    40   18   19 1
    41   18   52 1
    42   18   53 1
    43   19   20 1
    44   19   54 1
    45   19   55 1
    46   20   21 1
    47   20   56 1
    48   20   57 1
    49   22   23 2
    50   22   24 1
    51   24   28 1
    52   24   25 2
    53   25   26 1
    54   25   32 1
    55   26   27 2
    56   26   29 1
    57   27   28 1
    58   29   30 2
    59   29   31 am
    60   31   58 1
    61   31   59 1
    62   32   60 1
    63   32   61 1
@<TRIPOS>MOLECULE
ZINC40174604
   60    62     0     0     0
SMALL
USER_CHARGES

@<TRIPOS>ATOM
      1 C1         -0.0187    1.5258    0.0104 C.3       1 <0>        -0.1537
      2 C2          0.0021   -0.0041    0.0020 C.3       1 <0>        -0.1353
      3 C3          0.7182   -0.4975   -1.2568 C.3       1 <0>         0.1230
      4 H1          0.2444   -0.0644   -2.1377 H         1 <0>         0.1409
      5 C4          0.6316   -2.0003   -1.3275 C.2       1 <0>         0.4931
      6 O1          1.6452   -2.6663   -1.3373 O.2       1 <0>        -0.4690
      7 N1         -0.5721   -2.6043   -1.3798 N.am      1 <0>        -0.6112
      8 C5         -0.6517   -3.9867   -1.4449 C.2       1 <0>         0.0320
      9 C6         -1.7927   -4.7688   -1.5098 C.2       1 <0>        -0.2242
     10 C7         -1.5931   -6.2057   -1.5707 C.2       1 <0>        -0.0247
     11 C8         -0.2979   -6.6152   -1.5566 C.2       1 <0>        -0.2356
     12 S1          0.6123   -5.0889   -1.4702 S.3       1 <0>         0.2998
     13 C9         -2.7248   -7.1603   -1.6428 C.ar      1 <0>        -0.0425
     14 C10        -3.7852   -7.0577   -0.7434 C.ar      1 <0>        -0.1019
     15 C11        -4.8363   -7.9489   -0.8156 C.ar      1 <0>        -0.1190
     16 C12        -4.8389   -8.9429   -1.7777 C.ar      1 <0>        -0.0797
     17 C13        -3.7896   -9.0496   -2.6728 C.ar      1 <0>        -0.1183
     18 C14        -2.7358   -8.1606   -2.6139 C.ar      1 <0>        -0.0942
     19 C15        -5.9893   -9.9137   -1.8507 C.3       1 <0>        -0.1179
     20 C16        -3.1326   -4.1768   -1.5162 C.2       1 <0>         0.5866
     21 O2         -3.6629   -3.8826   -2.5716 O.2       1 <0>        -0.5247
     22 N2         -3.7781   -3.9579   -0.3535 N.am      1 <0>        -0.8497
     23 N3          2.1249   -0.0911   -1.2094 N.pl3     1 <0>        -0.4879
     24 C17         3.0318   -0.4473   -0.2518 C.2       1 <0>         0.5171
     25 N4          4.1789    0.1097   -0.5528 N.2       1 <0>        -0.3632
     26 N5          4.0075    0.8434   -1.7339 N.2       1 <0>        -0.2918
     27 C18         2.7619    0.7063   -2.1186 C.2       1 <0>         0.1858
     28 S2          2.0354    1.4262   -3.5533 S.3       1 <0>         0.0665
     29 C19         3.3959    2.3522   -4.3165 C.3       1 <0>        -0.1186
     30 C20         2.9033    3.0261   -5.5711 C.2       1 <0>         0.4862
     31 O3          1.7525    2.8952   -5.9152 O.2       1 <0>        -0.4895
     32 O4          3.7429    3.7718   -6.3064 O.3       1 <0>        -0.3420
     33 C21         3.2083    4.3813   -7.4831 C.3       1 <0>         0.0605
     34 C22         4.3052    5.1847   -8.1847 C.3       1 <0>        -0.1537
     35 N6          2.7815   -1.2575    0.8482 N.pl3     1 <0>        -0.8211
     36 H2          1.0039    1.9031    0.0027 H         1 <0>         0.0605
     37 H3         -0.5459    1.8868   -0.8726 H         1 <0>         0.0688
     38 H4         -0.5289    1.8773    0.9072 H         1 <0>         0.0724
     39 H5          0.5293   -0.3651    0.8851 H         1 <0>         0.0812
     40 H6         -1.0205   -0.3814    0.0098 H         1 <0>         0.0936
     41 H7         -1.3827   -2.0716   -1.3720 H         1 <0>         0.4216
     42 H8          0.0867   -7.6237   -1.5931 H         1 <0>         0.1920
     43 H9         -3.7838   -6.2825    0.0086 H         1 <0>         0.1211
     44 H10        -5.6582   -7.8705   -0.1195 H         1 <0>         0.1237
     45 H11        -3.7969   -9.8279   -3.4216 H         1 <0>         0.1259
     46 H12        -1.9193   -8.2420   -3.3161 H         1 <0>         0.1258
     47 H13        -6.7563   -9.5187   -2.5168 H         1 <0>         0.0723
     48 H14        -5.6336  -10.8705   -2.2331 H         1 <0>         0.0680
     49 H15        -6.4100  -10.0541   -0.8550 H         1 <0>         0.0673
     50 H16        -3.3555   -4.1923    0.4875 H         1 <0>         0.4023
     51 H17        -4.6654   -3.5659   -0.3578 H         1 <0>         0.4049
     52 H18         3.7592    3.1059   -3.6179 H         1 <0>         0.1416
     53 H19         4.2064    1.6674   -4.5661 H         1 <0>         0.1411
     54 H20         2.8373    3.6083   -8.1561 H         1 <0>         0.0720
     55 H21         2.3901    5.0468   -7.2079 H         1 <0>         0.0720
     56 H22         5.1234    4.5192   -8.4599 H         1 <0>         0.0687
     57 H23         3.8974    5.6496   -9.0823 H         1 <0>         0.0829
     58 H24         4.6763    5.9577   -7.5117 H         1 <0>         0.0687
     59 H25         1.8950   -1.6256    0.9879 H         1 <0>         0.4032
     60 H26         3.4933   -1.4553    1.4769 H         1 <0>         0.4264
@<TRIPOS>BOND
     1    1    2 1
     2    1   36 1
     3    1   37 1
     4    1   38 1
     5    2    3 1
     6    2   39 1
     7    2   40 1
     8    3    4 1
     9    3    5 1
    10    3   23 1
    11    5    6 2
    12    5    7 am
    13    7    8 1
    14    7   41 1
    15    8   12 1
    16    8    9 2
    17    9   10 1
    18    9   20 1
    19   10   11 2
    20   10   13 1
    21   11   12 1
    22   11   42 1
    23   13   18 ar
    24   13   14 ar
    25   14   15 ar
    26   14   43 1
    27   15   16 ar
    28   15   44 1
    29   16   17 ar
    30   16   19 1
    31   17   18 ar
    32   17   45 1
    33   18   46 1
    34   19   47 1
    35   19   48 1
    36   19   49 1
    37   20   21 2
    38   20   22 am
    39   22   50 1
    40   22   51 1
    41   23   27 1
    42   23   24 1
    43   24   25 2
    44   24   35 1
    45   25   26 1
    46   26   27 2
    47   27   28 1
    48   28   29 1
    49   29   30 1
    50   29   52 1
    51   29   53 1
    52   30   31 2
    53   30   32 1
    54   32   33 1
    55   33   34 1
    56   33   54 1
    57   33   55 1
    58   34   56 1
    59   34   57 1
    60   34   58 1
    61   35   59 1
    62   35   60 1
@<TRIPOS>MOLECULE
ZINC65742948
   76    78     0     0     0
SMALL
USER_CHARGES

@<TRIPOS>ATOM
      1 C1         -0.2763    0.0230   -3.9779 C.3       1 <0>        -0.1833
      2 C2         -0.5987   -1.1932   -3.1075 C.3       1 <0>         0.0176
      3 C3          0.7000   -1.9079   -2.7287 C.3       1 <0>        -0.1914
      4 N1         -1.2893   -0.7533   -1.8879 N.4       1 <0>        -0.3792
      5 C4         -2.5213   -0.0412   -2.2526 C.3       1 <0>        -0.0181
      6 C5         -3.1740    0.5276   -0.9911 C.3       1 <0>        -0.1387
      7 C6         -4.4440    1.2904   -1.3736 C.3       1 <0>         0.0138
      8 H1         -5.1019    0.6367   -1.9463 H         1 <0>         0.1040
      9 C7         -4.0772    2.4902   -2.2084 C.ar      1 <0>        -0.0824
     10 C8         -4.7091    2.7098   -3.4181 C.ar      1 <0>        -0.1091
     11 C9         -4.3726    3.8104   -4.1839 C.ar      1 <0>        -0.1138
     12 C10        -3.4045    4.6916   -3.7397 C.ar      1 <0>        -0.1184
     13 C11        -2.7733    4.4725   -2.5296 C.ar      1 <0>        -0.1162
     14 C12        -3.1128    3.3742   -1.7618 C.ar      1 <0>        -0.1207
     15 C13        -5.1522    1.7456   -0.1237 C.ar      1 <0>        -0.1258
     16 C14        -4.5071    2.5751    0.7734 C.ar      1 <0>        -0.0649
     17 C15        -5.1560    2.9926    1.9204 C.ar      1 <0>        -0.1292
     18 C16        -6.4522    2.5819    2.1728 C.ar      1 <0>        -0.0521
     19 C17        -7.1016    1.7531    1.2789 C.ar      1 <0>        -0.1810
     20 C18        -6.4543    1.3368    0.1243 C.ar      1 <0>         0.1527
     21 O1         -7.0932    0.5259   -0.7595 O.3       1 <0>        -0.3231
     22 C19        -8.4327    0.1449   -0.4392 C.3       1 <0>         0.2068
     23 H2         -9.0341    1.0381   -0.2703 H         1 <0>         0.1106
     24 C20        -9.0263   -0.6584   -1.5995 C.3       1 <0>         0.1076
     25 H3        -10.0612   -0.9147   -1.3731 H         1 <0>         0.1016
     26 C21        -8.2115   -1.9411   -1.7917 C.3       1 <0>         0.1297
     27 H4         -7.1882   -1.6854   -2.0667 H         1 <0>         0.0720
     28 C22        -8.2072   -2.7316   -0.4796 C.3       1 <0>         0.0640
     29 H5         -7.5838   -3.6187   -0.5908 H         1 <0>         0.0716
     30 C23        -7.6452   -1.8482    0.6374 C.3       1 <0>        -0.0040
     31 H6         -6.6132   -1.5837    0.4072 H         1 <0>         0.0597
     32 O2         -8.4301   -0.6584    0.7426 O.3       1 <0>        -0.3319
     33 C24        -7.6924   -2.5987    1.9434 C.2       1 <0>         0.5026
     34 O3         -7.0137   -3.6000    2.0959 O.co2     1 <0>        -0.6875
     35 O4         -8.4091   -2.2045    2.8475 O.co2     1 <0>        -0.6557
     36 O5         -9.5422   -3.1238   -0.1540 O.3       1 <0>        -0.5498
     37 O6         -8.8011   -2.7315   -2.8259 O.3       1 <0>        -0.5455
     38 O7         -8.9783    0.1229   -2.7950 O.3       1 <0>        -0.5470
     39 C25        -4.4496    3.8965    2.8977 C.3       1 <0>         0.1219
     40 O8         -4.6955    5.2602    2.5486 O.3       1 <0>        -0.5677
     41 C26        -1.6251   -1.9237   -1.0661 C.3       1 <0>         0.0145
     42 C27        -2.0031   -3.0942   -1.9760 C.3       1 <0>        -0.1861
     43 C28        -0.4162   -2.3112   -0.2122 C.3       1 <0>        -0.2058
     44 H7          0.2362   -0.3034   -4.8829 H         1 <0>         0.1025
     45 H8         -1.2014    0.5322   -4.2478 H         1 <0>         0.0826
     46 H9          0.3662    0.7068   -3.4231 H         1 <0>         0.0787
     47 H10        -1.2412   -1.8770   -3.6623 H         1 <0>         0.1407
     48 H11         0.4650   -2.8531   -2.2391 H         1 <0>         0.0955
     49 H12         1.2847   -2.1002   -3.6283 H         1 <0>         0.1007
     50 H13         1.2754   -1.2798   -2.0487 H         1 <0>         0.0816
     51 H14        -2.2816    0.7730   -2.9364 H         1 <0>         0.1358
     52 H15        -3.2103   -0.7324   -2.7380 H         1 <0>         0.1305
     53 H16        -3.4299   -0.2881   -0.3149 H         1 <0>         0.0949
     54 H17        -2.4784    1.2053   -0.4961 H         1 <0>         0.0877
     55 H18        -5.4654    2.0214   -3.7651 H         1 <0>         0.1261
     56 H19        -4.8657    3.9816   -5.1293 H         1 <0>         0.1238
     57 H20        -3.1411    5.5511   -4.3383 H         1 <0>         0.1221
     58 H21        -2.0167    5.1607   -2.1827 H         1 <0>         0.1216
     59 H22        -2.6223    3.2050   -0.8146 H         1 <0>         0.1198
     60 H23        -3.4948    2.8972    0.5786 H         1 <0>         0.1242
     61 H24        -6.9569    2.9092    3.0697 H         1 <0>         0.1278
     62 H25        -8.1139    1.4326    1.4765 H         1 <0>         0.1435
     63 H26        -9.6143   -3.6294    0.6671 H         1 <0>         0.3883
     64 H27        -8.3354   -3.5606   -3.0012 H         1 <0>         0.3759
     65 H28        -9.4708    0.9534   -2.7422 H         1 <0>         0.3779
     66 H29        -4.8228    3.7060    3.9039 H         1 <0>         0.0560
     67 H30        -3.3779    3.7006    2.8645 H         1 <0>         0.0493
     68 H31        -4.2703    5.8995    3.1365 H         1 <0>         0.3794
     69 H32        -2.4664   -1.6822   -0.4164 H         1 <0>         0.1421
     70 H33        -1.1233   -3.4233   -2.5290 H         1 <0>         0.0854
     71 H34        -2.3806   -3.9181   -1.3703 H         1 <0>         0.1054
     72 H35        -2.7745   -2.7753   -2.6769 H         1 <0>         0.0778
     73 H36        -0.3545   -1.6494    0.6518 H         1 <0>         0.0815
     74 H37        -0.5257   -3.3414    0.1264 H         1 <0>         0.1039
     75 H38         0.4930   -2.2186   -0.8064 H         1 <0>         0.0971
     76 H39        -0.6867   -0.1363   -1.3641 H         1 <0>         0.4180
@<TRIPOS>BOND
     1    1    2 1
     2    1   44 1
     3    1   45 1
     4    1   46 1
     5    2    3 1
     6    2    4 1
     7    2   47 1
     8    3   48 1
     9    3   49 1
    10    3   50 1
    11    4    5 1
    12    4   41 1
    13    4   76 1
    14    5    6 1
    15    5   51 1
    16    5   52 1
    17    6    7 1
    18    6   53 1
    19    6   54 1
    20    7    8 1
    21    7    9 1
    22    7   15 1
    23    9   14 ar
    24    9   10 ar
    25   10   11 ar
    26   10   55 1
    27   11   12 ar
    28   11   56 1
    29   12   13 ar
    30   12   57 1
    31   13   14 ar
    32   13   58 1
    33   14   59 1
    34   15   20 ar
    35   15   16 ar
    36   16   17 ar
    37   16   60 1
    38   17   18 ar
    39   17   39 1
    40   18   19 ar
    41   18   61 1
    42   19   20 ar
    43   19   62 1
    44   20   21 1
    45   21   22 1
    46   22   23 1
    47   22   32 1
    48   22   24 1
    49   24   25 1
    50   24   26 1
    51   24   38 1
    52   26   27 1
    53   26   28 1
    54   26   37 1
    55   28   29 1
    56   28   30 1
    57   28   36 1
    58   30   31 1
    59   30   32 1
    60   30   33 1
    61   33   34 2
    62   33   35 1
    63   36   63 1
    64   37   64 1
    65   38   65 1
    66   39   40 1
    67   39   66 1
    68   39   67 1
    69   40   68 1
    70   41   42 1
    71   41   43 1
    72   41   69 1
    73   42   70 1
    74   42   71 1
    75   42   72 1
    76   43   73 1
    77   43   74 1
    78   43   75 1
@<TRIPOS>MOLECULE
ZINC20290437
   59    62     0     0     0
SMALL
USER_CHARGES
1-(4-amino-1,2,5-oxadiazol-3-yl)-5-[(4-methylpiperazin-1-yl)methyl]-N-[[(2R)-2-phenylpropylidene]amino]triazole-4-carboxamide
@<TRIPOS>ATOM
      1 C1         -1.2949   -1.7698   -7.9156 C.3       1 <0>        -0.1435
      2 C2         -0.0466   -1.2237   -7.2196 C.3       1 <0>         0.0014
      3 H1         -0.0481   -0.1239   -7.2413 H         1 <0>         0.1010
      4 C3         -0.0273   -1.6877   -5.7859 C.2       1 <0>         0.0964
      5 N1         -0.0304   -0.8301   -4.8355 N.2       1 <0>        -0.2329
      6 N2         -0.0125   -1.2615   -3.5027 N.am      1 <0>        -0.5831
      7 C4         -0.0157   -0.3586   -2.5020 C.2       1 <0>         0.6292
      8 O1         -0.0342    0.8306   -2.7561 O.2       1 <0>        -0.4923
      9 C5          0.0031   -0.8127   -1.0990 C.2       1 <0>        -0.0562
     10 C6          0.0021   -0.0041    0.0020 C.2       1 <0>         0.1485
     11 N3          0.0288   -0.8157    1.0824 N.pl3     1 <0>        -0.3065
     12 N4          0.0364   -2.1320    0.5993 N.2       1 <0>        -0.0301
     13 N5          0.0243   -2.0925   -0.6875 N.2       1 <0>        -0.1631
     14 C7          0.0428   -0.4189    2.4244 C.2       1 <0>         0.2944
     15 C8          0.0719   -1.3153    3.5836 C.2       1 <0>         0.3630
     16 N6          0.0781   -0.5864    4.6657 N.2       1 <0>        -0.3345
     17 O2          0.0541    0.7744    4.2722 O.3       1 <0>         0.0524
     18 N7          0.0380    0.8103    2.8561 N.2       1 <0>        -0.2848
     19 N8          0.0893   -2.7048    3.5379 N.pl3     1 <0>        -0.8260
     20 C9         -0.0184    1.5028    0.0103 C.3       1 <0>         0.1073
     21 N9          1.3598    2.0112   -0.0001 N.3       1 <0>        -0.5234
     22 C10         2.0575    1.6674    1.2467 C.3       1 <0>         0.0113
     23 C11         3.5095    2.1439    1.1638 C.3       1 <0>         0.0034
     24 N10         3.5337    3.5950    0.9331 N.4       1 <0>        -0.4025
     25 C12         2.8361    3.9389   -0.3138 C.3       1 <0>         0.0011
     26 C13         1.3840    3.4624   -0.2308 C.3       1 <0>         0.0284
     27 C14         4.9119    4.1035    0.9227 C.3       1 <0>        -0.0449
     28 C15         1.1845   -1.7281   -7.9274 C.ar      1 <0>        -0.0818
     29 C16         1.4238   -3.0868   -8.0144 C.ar      1 <0>        -0.1133
     30 C17         2.5508   -3.5496   -8.6675 C.ar      1 <0>        -0.1173
     31 C18         3.4434   -2.6534   -9.2253 C.ar      1 <0>        -0.1178
     32 C19         3.2065   -1.2946   -9.1341 C.ar      1 <0>        -0.1176
     33 C20         2.0773   -0.8319   -8.4847 C.ar      1 <0>        -0.1093
     34 H2         -1.3090   -1.4311   -8.9621 H         1 <0>         0.0734
     35 H3         -2.1935   -1.4016   -7.3989 H         1 <0>         0.0649
     36 H4         -1.2797   -2.8693   -7.8862 H         1 <0>         0.0650
     37 H5         -0.0105   -2.7633   -5.5561 H         1 <0>         0.1179
     38 H6          0.0042   -2.3371   -3.2729 H         1 <0>         0.4142
     39 H7          0.1109   -3.2856    4.4718 H         1 <0>         0.4535
     40 H8          0.0815   -3.2233    2.5678 H         1 <0>         0.4544
     41 H9         -0.5504    1.8672   -0.8809 H         1 <0>         0.1479
     42 H10        -0.5333    1.8575    0.9153 H         1 <0>         0.0838
     43 H11         1.5572    2.1587    2.0943 H         1 <0>         0.0844
     44 H12         2.0361    0.5770    1.3902 H         1 <0>         0.0974
     45 H13         4.0256    1.9130    2.1074 H         1 <0>         0.1366
     46 H14         4.0169    1.6311    0.3334 H         1 <0>         0.1347
     47 H15         2.8576    5.0293   -0.4572 H         1 <0>         0.1419
     48 H16         3.3364    3.4476   -1.1614 H         1 <0>         0.1372
     49 H17         0.8671    3.6923   -1.1742 H         1 <0>         0.1351
     50 H18         0.8760    3.9743    0.5998 H         1 <0>         0.0692
     51 H19         4.9007    5.1896    0.7485 H         1 <0>         0.1271
     52 H20         5.4790    3.6093    0.1201 H         1 <0>         0.1199
     53 H21         5.3879    3.8924    1.8916 H         1 <0>         0.1246
     54 H22         0.7285   -3.7868   -7.5751 H         1 <0>         0.1226
     55 H23         2.7357   -4.6112   -8.7391 H         1 <0>         0.1241
     56 H24         4.3257   -3.0149   -9.7326 H         1 <0>         0.1232
     57 H25         3.9039   -0.5944   -9.5698 H         1 <0>         0.1237
     58 H26         1.8924    0.2298   -8.4132 H         1 <0>         0.1234
     59 H27         3.0019    4.0801    1.7649 H         1 <0>         0.4427
@<TRIPOS>BOND
     1    1    2 1
     2    1   34 1
     3    1   35 1
     4    1   36 1
     5    2    3 1
     6    2    4 1
     7    2   28 1
     8    4    5 2
     9    4   37 1
    10    5    6 1
    11    6    7 am
    12    6   38 1
    13    7    8 2
    14    7    9 1
    15    9   13 1
    16    9   10 2
    17   10   11 1
    18   10   20 1
    19   11   12 1
    20   11   14 1
    21   12   13 2
    22   14   18 2
    23   14   15 1
    24   15   16 2
    25   15   19 1
    26   16   17 1
    27   17   18 1
    28   19   39 1
    29   19   40 1
    30   20   21 1
    31   20   41 1
    32   20   42 1
    33   21   26 1
    34   21   22 1
    35   22   23 1
    36   22   43 1
    37   22   44 1
    38   23   24 1
    39   23   45 1
    40   23   46 1
    41   24   25 1
    42   24   27 1
    43   24   59 1
    44   25   26 1
    45   25   47 1
    46   25   48 1
    47   26   49 1
    48   26   50 1
    49   27   51 1
    50   27   52 1
    51   27   53 1
    52   28   33 ar
    53   28   29 ar
    54   29   30 ar
    55   29   54 1
    56   30   31 ar
    57   30   55 1
    58   31   32 ar
    59   31   56 1
    60   32   33 ar
    61   32   57 1
    62   33   58 1
@<TRIPOS>MOLECULE
ZINC38979597
   50    53     0     0     0
SMALL
USER_CHARGES

@<TRIPOS>ATOM
      1 C1          2.2508   -7.2623    1.5183 C.2       1 <0>        -0.1694
      2 C2          1.4993   -6.2172    1.7612 C.2       1 <0>        -0.1884
      3 C3          1.8440   -4.8831    1.1509 C.3       1 <0>         0.1549
      4 N1          0.6958   -4.3823    0.3913 N.pl3     1 <0>        -0.6342
      5 C4         -0.2103   -3.5196    0.9902 C.ar      1 <0>         0.2668
      6 C5         -0.2842   -3.4236    2.3737 C.ar      1 <0>        -0.1953
      7 C6         -1.1886   -2.5594    2.9565 C.ar      1 <0>        -0.0396
      8 C7         -2.0288   -1.7812    2.1741 C.ar      1 <0>        -0.1753
      9 C8         -1.9730   -1.8612    0.7997 C.ar      1 <0>        -0.0171
     10 C9         -1.0635   -2.7328    0.1955 C.ar      1 <0>        -0.2215
     11 C10        -0.9849   -2.8439   -1.2686 C.2       1 <0>         0.4363
     12 O1         -1.8565   -2.3924   -1.9815 O.2       1 <0>        -0.4343
     13 C11         0.2260   -3.5432   -1.8541 C.3       1 <0>        -0.1574
     14 H1          0.0215   -3.8351   -2.8842 H         1 <0>         0.1388
     15 C12         0.5057   -4.7879   -1.0065 C.3       1 <0>         0.3517
     16 H2          1.4074   -5.2809   -1.3696 H         1 <0>         0.0914
     17 O2         -0.6034   -5.6843   -1.0985 O.3       1 <0>        -0.5593
     18 C13         1.4176   -2.6216   -1.8119 C.2       1 <0>         0.5430
     19 O3          1.5197   -1.8027   -0.9232 O.2       1 <0>        -0.4559
     20 N2          2.3698   -2.7074   -2.7618 N.am      1 <0>        -0.7209
     21 C14         3.5282   -1.8115   -2.7208 C.3       1 <0>         0.1317
     22 H3          3.1892   -0.8492   -2.3373 H         1 <0>         0.1891
     23 C15         4.0060   -1.6029   -4.1450 C.2       1 <0>         0.3801
     24 C16         5.3274   -1.9545   -4.4288 C.ar      1 <0>        -0.2673
     25 C17         5.8524   -1.7924   -5.7274 C.ar      1 <0>        -0.0095
     26 C18         7.1438   -2.1425   -5.9776 C.ar      1 <0>        -0.1475
     27 C19         7.9598   -2.6588   -4.9760 C.ar      1 <0>         0.0613
     28 C20         7.5085   -2.8380   -3.7028 C.ar      1 <0>        -0.1973
     29 C21         6.1855   -2.4980   -3.3728 C.ar      1 <0>         0.3314
     30 N3          5.7445   -2.6746   -2.1207 N.am      1 <0>        -0.6089
     31 C22         4.5207   -2.3812   -1.7330 C.2       1 <0>         0.5157
     32 O4          4.1886   -2.5688   -0.5770 O.2       1 <0>        -0.4017
     33 O5          3.1980   -1.1050   -5.0869 O.3       1 <0>        -0.3601
     34 H4          2.0038   -8.2184    1.9557 H         1 <0>         0.1052
     35 H5          3.1148   -7.1689    0.8771 H         1 <0>         0.0944
     36 H6          0.6328   -6.3116    2.3989 H         1 <0>         0.1174
     37 H7          2.0932   -4.1754    1.9416 H         1 <0>         0.0941
     38 H8          2.6984   -4.9985    0.4840 H         1 <0>         0.0745
     39 H9          0.3651   -4.0248    2.9928 H         1 <0>         0.1294
     40 H10        -1.2429   -2.4886    4.0328 H         1 <0>         0.1301
     41 H11        -2.7309   -1.1091    2.6447 H         1 <0>         0.1303
     42 H12        -2.6281   -1.2535    0.1932 H         1 <0>         0.1331
     43 H13        -0.4992   -6.4934   -0.5792 H         1 <0>         0.3961
     44 H14         2.2882   -3.3624   -3.4727 H         1 <0>         0.4191
     45 H15         5.2341   -1.3936   -6.5180 H         1 <0>         0.1591
     46 H16         7.5427   -2.0175   -6.9734 H         1 <0>         0.1632
     47 H17         8.9790   -2.9251   -5.2142 H         1 <0>         0.1665
     48 H18         8.1671   -3.2414   -2.9478 H         1 <0>         0.1704
     49 H19         3.6137   -1.0175   -5.9556 H         1 <0>         0.4451
     50 H20         6.3593   -3.0384   -1.4646 H         1 <0>         0.4407
@<TRIPOS>BOND
     1    1    2 2
     2    1   34 1
     3    1   35 1
     4    2    3 1
     5    2   36 1
     6    3    4 1
     7    3   37 1
     8    3   38 1
     9    4   15 1
    10    4    5 1
    11    5   10 ar
    12    5    6 ar
    13    6    7 ar
    14    6   39 1
    15    7    8 ar
    16    7   40 1
    17    8    9 ar
    18    8   41 1
    19    9   10 ar
    20    9   42 1
    21   10   11 1
    22   11   12 2
    23   11   13 1
    24   13   14 1
    25   13   15 1
    26   13   18 1
    27   15   16 1
    28   15   17 1
    29   17   43 1
    30   18   19 2
    31   18   20 am
    32   20   21 1
    33   20   44 1
    34   21   22 1
    35   21   31 1
    36   21   23 1
    37   23   24 2
    38   23   33 1
    39   24   29 ar
    40   24   25 ar
    41   25   26 ar
    42   25   45 1
    43   26   27 ar
    44   26   46 1
    45   27   28 ar
    46   27   47 1
    47   28   29 ar
    48   28   48 1
    49   29   30 2
    50   30   31 am
    51   30   50 1
    52   31   32 2
    53   33   49 1
@<TRIPOS>MOLECULE
ZINC51099553
   57    58     0     0     0
SMALL
USER_CHARGES

@<TRIPOS>ATOM
      1 C1         -2.7556    0.7158   -1.3616 C.3       1 <0>        -0.1549
      2 C2         -2.0445   -0.5971   -1.0277 C.3       1 <0>        -0.1226
      3 C3         -1.2710   -1.0845   -2.2545 C.3       1 <0>        -0.1325
      4 C4         -0.5599   -2.3974   -1.9205 C.3       1 <0>         0.1297
      5 N1          0.1808   -2.8641   -3.0952 N.am      1 <0>        -0.7267
      6 C5          0.8883   -4.0097   -3.0345 C.2       1 <0>         0.6907
      7 O1          0.9117   -4.6555   -2.0052 O.2       1 <0>        -0.5167
      8 N2          1.5696   -4.4390   -4.1151 N.am      1 <0>        -0.6767
      9 C6          2.2771   -5.5846   -4.0544 C.2       1 <0>         0.5137
     10 O2          2.3005   -6.2288   -3.0276 O.2       1 <0>        -0.4466
     11 C7          3.0390   -6.0646   -5.2627 C.3       1 <0>         0.0078
     12 H1          2.5040   -5.7766   -6.1676 H         1 <0>         0.1646
     13 C8          4.4325   -5.4329   -5.2711 C.3       1 <0>        -0.1817
     14 N3          3.1648   -7.5274   -5.2129 N.4       1 <0>        -0.3744
     15 C9          1.8286   -8.1336   -5.2533 C.3       1 <0>        -0.0085
     16 C10         1.9495   -9.6532   -5.1202 C.3       1 <0>        -0.1532
     17 C11         2.7933  -10.1960   -6.2772 C.3       1 <0>         0.1387
     18 C12         4.1585   -9.5023   -6.2697 C.3       1 <0>        -0.1613
     19 C13         3.9558   -7.9883   -6.3603 C.3       1 <0>        -0.0066
     20 N4          2.9767  -11.6403   -6.1142 N.am      1 <0>        -0.7262
     21 C14         3.2220  -12.4141   -7.1901 C.2       1 <0>         0.6245
     22 O3          3.2911  -11.9130   -8.2969 O.2       1 <0>        -0.5117
     23 C15         3.4057  -13.8602   -7.0269 C.2       1 <0>        -0.3055
     24 C16         3.6676  -14.8268   -7.9727 C.2       1 <0>         0.1670
     25 N5          3.7846  -16.0565   -7.5368 N.2       1 <0>        -0.5216
     26 C17         3.6583  -16.3501   -6.2626 C.2       1 <0>         0.0727
     27 S1          3.3599  -14.8568   -5.5457 S.3       1 <0>         0.1449
     28 C18         3.8115  -14.4871   -9.4338 C.3       1 <0>        -0.0956
     29 H2         -2.0182    1.4658   -1.6478 H         1 <0>         0.0558
     30 H3         -3.4485    0.5539   -2.1873 H         1 <0>         0.0556
     31 H4         -3.3067    1.0630   -0.4876 H         1 <0>         0.0602
     32 H5         -1.3516   -0.4353   -0.2020 H         1 <0>         0.0677
     33 H6         -2.7819   -1.3471   -0.7415 H         1 <0>         0.0674
     34 H7         -1.9639   -1.2464   -3.0802 H         1 <0>         0.0719
     35 H8         -0.5336   -0.3345   -2.5406 H         1 <0>         0.0722
     36 H9          0.1330   -2.2356   -1.0948 H         1 <0>         0.0757
     37 H10        -1.2972   -3.1474   -1.6344 H         1 <0>         0.0754
     38 H11         0.1620   -2.3487   -3.9167 H         1 <0>         0.4028
     39 H12         1.5509   -3.9236   -4.9366 H         1 <0>         0.4180
     40 H13         4.9835   -5.7801   -6.1451 H         1 <0>         0.1044
     41 H14         4.3391   -4.3475   -5.3081 H         1 <0>         0.1134
     42 H15         4.9675   -5.7210   -4.3662 H         1 <0>         0.0934
     43 H16         1.2283   -7.7439   -4.4312 H         1 <0>         0.1365
     44 H17         1.3479   -7.8895   -6.2006 H         1 <0>         0.1364
     45 H18         2.4300   -9.8984   -4.1730 H         1 <0>         0.0990
     46 H19         0.9565  -10.1015   -5.1522 H         1 <0>         0.1235
     47 H20         2.2879   -9.9959   -7.2220 H         1 <0>         0.1111
     48 H21         4.6848   -9.7444   -5.3464 H         1 <0>         0.0943
     49 H22         4.7444   -9.8428   -7.1234 H         1 <0>         0.1234
     50 H23         3.4297   -7.7473   -7.2840 H         1 <0>         0.1378
     51 H24         4.9258   -7.4913   -6.3555 H         1 <0>         0.1419
     52 H25         2.9217  -12.0397   -5.2319 H         1 <0>         0.4066
     53 H26         3.7325  -17.3174   -5.7881 H         1 <0>         0.2305
     54 H27         4.8551  -14.2617   -9.6534 H         1 <0>         0.0854
     55 H28         3.4881  -15.3350  -10.0375 H         1 <0>         0.0810
     56 H29         3.1954  -13.6188   -9.6674 H         1 <0>         0.0954
     57 H30         3.6277   -7.7952   -4.3573 H         1 <0>         0.4318
@<TRIPOS>BOND
     1    1    2 1
     2    1   29 1
     3    1   30 1
     4    1   31 1
     5    2    3 1
     6    2   32 1
     7    2   33 1
     8    3    4 1
     9    3   34 1
    10    3   35 1
    11    4    5 1
    12    4   36 1
    13    4   37 1
    14    5    6 am
    15    5   38 1
    16    6    7 2
    17    6    8 am
    18    8    9 am
    19    8   39 1
    20    9   10 2
    21    9   11 1
    22   11   12 1
    23   11   13 1
    24   11   14 1
    25   13   40 1
    26   13   41 1
    27   13   42 1
    28   14   19 1
    29   14   15 1
    30   14   57 1
    31   15   16 1
    32   15   43 1
    33   15   44 1
    34   16   17 1
    35   16   45 1
    36   16   46 1
    37   17   18 1
    38   17   20 1
    39   17   47 1
    40   18   19 1
    41   18   48 1
    42   18   49 1
    43   19   50 1
    44   19   51 1
    45   20   21 am
    46   20   52 1
    47   21   22 2
    48   21   23 1
    49   23   27 1
    50   23   24 2
    51   24   25 1
    52   24   28 1
    53   25   26 2
    54   26   27 1
    55   26   53 1
    56   28   54 1
    57   28   55 1
    58   28   56 1
@<TRIPOS>MOLECULE
ZINC13147521
   53    55     0     0     0
SMALL
USER_CHARGES

@<TRIPOS>ATOM
      1 C1         -3.1270   -0.1970    1.4455 C.3       1 <0>        -0.1558
      2 C2         -2.0386   -1.1504    0.9482 C.3       1 <0>         0.0510
      3 O1         -1.2663   -1.6121    2.0583 O.3       1 <0>        -0.3063
      4 C3         -0.2499   -2.4740    1.7875 C.ar      1 <0>         0.1221
      5 C4         -0.0003   -2.8607    0.4778 C.ar      1 <0>        -0.1225
      6 C5          1.0318   -3.7366    0.1934 C.ar      1 <0>        -0.1503
      7 C6          1.8229   -4.2335    1.2140 C.ar      1 <0>         0.1359
      8 C7          1.5768   -3.8476    2.5381 C.ar      1 <0>         0.0231
      9 C8          0.5371   -2.9593    2.8176 C.ar      1 <0>        -0.0928
     10 N1          2.3552   -4.3352    3.5519 N.pl3     1 <0>        -0.4376
     11 C9          2.8912   -3.5106    4.4238 C.2       1 <0>         0.5149
     12 C10         3.6254   -4.0216    5.5989 C.2       1 <0>        -0.2333
     13 C11         4.5974   -3.2084    6.1380 C.2       1 <0>         0.1063
     14 C12         4.8149   -1.9080    5.5003 C.ar      1 <0>        -0.1173
     15 C13         5.9348   -1.1212    5.7945 C.ar      1 <0>        -0.0680
     16 C14         6.0736    0.0917    5.1519 C.ar      1 <0>         0.1389
     17 N2          5.1764    0.5094    4.2780 N.ar      1 <0>        -0.4167
     18 C15         4.1059   -0.1940    3.9685 C.ar      1 <0>         0.1676
     19 C16         3.8799   -1.4265    4.5647 C.ar      1 <0>         0.0623
     20 O2          2.7895   -2.1652    4.2653 O.3       1 <0>        -0.1922
     21 C17         3.1217    0.3429    2.9615 C.3       1 <0>        -0.1162
     22 C18         6.9653   -1.5886    6.7898 C.3       1 <0>         0.1105
     23 O3          7.9969   -0.6064    6.9042 O.3       1 <0>        -0.5624
     24 C19         3.3303   -5.3481    6.1712 C.2       1 <0>         0.5808
     25 O4          2.4751   -6.0509    5.6677 O.2       1 <0>        -0.5252
     26 N3          4.0083   -5.7816    7.2523 N.am      1 <0>        -0.8247
     27 O5          2.8370   -5.0950    0.9324 O.3       1 <0>        -0.3175
     28 C20         3.0292   -5.4446   -0.4398 C.3       1 <0>         0.0522
     29 C21         4.2060   -6.4151   -0.5589 C.3       1 <0>        -0.1561
     30 H1         -2.6641    0.6540    1.9451 H         1 <0>         0.0697
     31 H2         -3.7161    0.1551    0.5987 H         1 <0>         0.0862
     32 H3         -3.7762   -0.7210    2.1470 H         1 <0>         0.0699
     33 H4         -2.5015   -2.0014    0.4486 H         1 <0>         0.0688
     34 H5         -1.3894   -0.6265    0.2468 H         1 <0>         0.0690
     35 H6         -0.6149   -2.4762   -0.3227 H         1 <0>         0.1525
     36 H7          1.2203   -4.0336   -0.8277 H         1 <0>         0.1558
     37 H8          0.3448   -2.6543    3.8357 H         1 <0>         0.1519
     38 H9          5.1756   -3.5169    6.9964 H         1 <0>         0.1883
     39 H10         6.9317    0.7109    5.3679 H         1 <0>         0.1959
     40 H11         3.4060    0.0111    1.9629 H         1 <0>         0.0946
     41 H12         2.1234   -0.0263    3.1965 H         1 <0>         0.0868
     42 H13         3.1238    1.4324    2.9966 H         1 <0>         0.1009
     43 H14         6.4925   -1.7339    7.7612 H         1 <0>         0.0809
     44 H15         7.3965   -2.5307    6.4511 H         1 <0>         0.0792
     45 H16         8.6961   -0.8414    7.5296 H         1 <0>         0.4030
     46 H17         4.7289   -5.2462    7.6197 H         1 <0>         0.4063
     47 H18         3.7756   -6.6289    7.6631 H         1 <0>         0.4279
     48 H19         2.1263   -5.9196   -0.8236 H         1 <0>         0.0746
     49 H20         3.2402   -4.5449   -1.0178 H         1 <0>         0.0729
     50 H21         4.3526   -6.6817   -1.6056 H         1 <0>         0.0898
     51 H22         5.1089   -5.9401   -0.1751 H         1 <0>         0.0677
     52 H23         3.9949   -7.3148    0.0191 H         1 <0>         0.0705
     53 H24         2.5116   -5.2896    3.6273 H         1 <0>         0.4659
@<TRIPOS>BOND
     1    1    2 1
     2    1   30 1
     3    1   31 1
     4    1   32 1
     5    2    3 1
     6    2   33 1
     7    2   34 1
     8    3    4 1
     9    4    9 ar
    10    4    5 ar
    11    5    6 ar
    12    5   35 1
    13    6    7 ar
    14    6   36 1
    15    7    8 ar
    16    7   27 1
    17    8    9 ar
    18    8   10 1
    19    9   37 1
    20   10   11 2
    21   10   53 1
    22   11   20 1
    23   11   12 1
    24   12   13 2
    25   12   24 1
    26   13   14 1
    27   13   38 1
    28   14   19 ar
    29   14   15 ar
    30   15   16 ar
    31   15   22 1
    32   16   17 ar
    33   16   39 1
    34   17   18 ar
    35   18   19 ar
    36   18   21 1
    37   19   20 1
    38   21   40 1
    39   21   41 1
    40   21   42 1
    41   22   23 1
    42   22   43 1
    43   22   44 1
    44   23   45 1
    45   24   25 2
    46   24   26 am
    47   26   46 1
    48   26   47 1
    49   27   28 1
    50   28   29 1
    51   28   48 1
    52   28   49 1
    53   29   50 1
    54   29   51 1
    55   29   52 1
@<TRIPOS>MOLECULE
ZINC64886244
   52    54     0     0     0
SMALL
USER_CHARGES

@<TRIPOS>ATOM
      1 C1         -0.0184    1.5028    0.0103 C.3       1 <0>        -0.1187
      2 C2          0.0021   -0.0041    0.0020 C.ar      1 <0>        -0.0655
      3 C3          0.0057   -0.6883   -1.1999 C.ar      1 <0>        -0.1113
      4 C4          0.0244   -2.0707   -1.2116 C.ar      1 <0>        -0.0922
      5 C5          0.0391   -2.7727   -0.0220 C.ar      1 <0>        -0.1314
      6 C6          0.0355   -2.0888    1.1861 C.ar      1 <0>         0.1357
      7 C7          0.0229   -0.7002    1.1945 C.ar      1 <0>        -0.1039
      8 N1          0.0504   -2.7982    2.3947 N.pl3     1 <0>        -0.3028
      9 C8         -0.5547   -3.9783    2.6214 C.2       1 <0>         0.1828
     10 C9         -0.2960   -4.3294    3.9314 C.2       1 <0>        -0.2979
     11 C10         0.4977   -3.3021    4.4900 C.2       1 <0>         0.0843
     12 N2          0.7021   -2.4019    3.5679 N.2       1 <0>        -0.2811
     13 C11        -0.7608   -5.5478    4.6188 C.2       1 <0>         0.6059
     14 O1         -1.4425   -6.3596    4.0229 O.2       1 <0>        -0.5267
     15 N3         -0.4301   -5.7621    5.9076 N.am      1 <0>        -0.5322
     16 N4         -0.8718   -6.9201    6.5609 N.am      1 <0>        -0.5233
     17 C12        -0.5411   -7.1344    7.8498 C.2       1 <0>         0.7160
     18 O2         -0.9244   -8.1394    8.4167 O.2       1 <0>        -0.5623
     19 N5          0.2145   -6.2348    8.5102 N.am      1 <0>        -0.7488
     20 C13         0.5739   -6.4677    9.9112 C.3       1 <0>         0.1392
     21 C14         1.4285   -5.3045   10.4187 C.3       1 <0>        -0.1560
     22 C15         1.8039   -5.5478   11.8818 C.3       1 <0>         0.0954
     23 N6          2.6221   -4.4340   12.3677 N.pl3     1 <0>        -0.4086
     24 C16         3.9867   -4.3429   12.3099 C.2       1 <0>         0.0258
     25 C17         4.3222   -3.1623   12.8641 C.2       1 <0>         0.0044
     26 N7          3.1934   -2.5491   13.2496 N.pl3     1 <0>        -0.4760
     27 C18         2.1707   -3.3027   12.9509 C.cat     1 <0>         0.2890
     28 C19        -1.3658   -4.7705    1.6287 C.3       1 <0>        -0.1125
     29 H1          1.0042    1.8801    0.0026 H         1 <0>         0.0773
     30 H2         -0.5455    1.8639   -0.8728 H         1 <0>         0.0743
     31 H3         -0.5286    1.8543    0.9071 H         1 <0>         0.0698
     32 H4         -0.0065   -0.1416   -2.1312 H         1 <0>         0.1343
     33 H5          0.0272   -2.6022   -2.1517 H         1 <0>         0.1390
     34 H6          0.0530   -3.8526   -0.0318 H         1 <0>         0.1353
     35 H7          0.0245   -0.1653    2.1327 H         1 <0>         0.1344
     36 H8          0.8736   -3.2702    5.5020 H         1 <0>         0.1904
     37 H9          0.1137   -5.1146    6.3829 H         1 <0>         0.4146
     38 H10        -1.4156   -7.5676    6.0856 H         1 <0>         0.4488
     39 H11         0.5203   -5.4330    8.0579 H         1 <0>         0.3925
     40 H12        -0.3329   -6.5413   10.5115 H         1 <0>         0.0811
     41 H13         1.1393   -7.3961    9.9917 H         1 <0>         0.0813
     42 H14         2.3353   -5.2309    9.8183 H         1 <0>         0.0898
     43 H15         0.8631   -4.3761   10.3382 H         1 <0>         0.0877
     44 H16         0.8971   -5.6214   12.4821 H         1 <0>         0.1282
     45 H17         2.3693   -6.4762   11.9623 H         1 <0>         0.1308
     46 H18         4.6641   -5.0770   11.8993 H         1 <0>         0.2236
     47 H19         5.3246   -2.7767   12.9780 H         1 <0>         0.2241
     48 H20         1.1350   -3.0627   13.1411 H         1 <0>         0.2604
     49 H21        -0.7115   -5.4551    1.0889 H         1 <0>         0.0958
     50 H22        -2.1310   -5.3397    2.1566 H         1 <0>         0.1110
     51 H23        -1.8415   -4.0899    0.9226 H         1 <0>         0.0824
     52 H24         3.1446   -1.6809   13.6793 H         1 <0>         0.4659
@<TRIPOS>BOND
     1    1    2 1
     2    1   29 1
     3    1   30 1
     4    1   31 1
     5    2    7 ar
     6    2    3 ar
     7    3    4 ar
     8    3   32 1
     9    4    5 ar
    10    4   33 1
    11    5    6 ar
    12    5   34 1
    13    6    7 ar
    14    6    8 1
    15    7   35 1
    16    8   12 1
    17    8    9 1
    18    9   10 2
    19    9   28 1
    20   10   11 1
    21   10   13 1
    22   11   12 2
    23   11   36 1
    24   13   14 2
    25   13   15 am
    26   15   16 1
    27   15   37 1
    28   16   17 am
    29   16   38 1
    30   17   18 2
    31   17   19 am
    32   19   20 1
    33   19   39 1
    34   20   21 1
    35   20   40 1
    36   20   41 1
    37   21   22 1
    38   21   42 1
    39   21   43 1
    40   22   23 1
    41   22   44 1
    42   22   45 1
    43   23   27 1
    44   23   24 1
    45   24   25 2
    46   24   46 1
    47   25   26 1
    48   25   47 1
    49   26   27 2
    50   26   52 1
    51   27   48 1
    52   28   49 1
    53   28   50 1
    54   28   51 1
@<TRIPOS>MOLECULE
ZINC09109388
   53    56     0     0     0
SMALL
USER_CHARGES
2,6-dihydroxy-5-(methoxyBLAHyl)-3-tert-butyl-pyrimidin-4-one
@<TRIPOS>ATOM
      1 C1         -3.6181    5.5366   -2.0503 C.3       1 <0>        -0.1347
      2 C2         -4.0831    4.9198   -3.3710 C.3       1 <0>         0.1420
      3 C3         -3.3756    5.6153   -4.5357 C.3       1 <0>        -0.1661
      4 C4         -5.5959    5.0991   -3.5129 C.3       1 <0>        -0.1672
      5 N1         -3.7572    3.4916   -3.3845 N.am      1 <0>        -0.5030
      6 C5         -3.1476    2.9297   -2.3196 C.2       1 <0>         0.5686
      7 O1         -2.8633    3.6011   -1.3406 O.2       1 <0>        -0.5117
      8 C6         -2.8465    1.5621   -2.3581 C.2       1 <0>        -0.4396
      9 C7         -3.1814    0.8400   -3.4900 C.2       1 <0>         0.4854
     10 N2         -3.7889    1.4521   -4.5121 N.2       1 <0>        -0.6390
     11 C8         -4.0687    2.7352   -4.4690 C.2       1 <0>         0.6617
     12 O2         -4.6778    3.3137   -5.5242 O.3       1 <0>        -0.4320
     13 O3         -2.8990   -0.4816   -3.5606 O.3       1 <0>        -0.4375
     14 C9         -2.1659    0.8920   -1.1925 C.3       1 <0>         0.2175
     15 H1         -1.9457   -0.1463   -1.4407 H         1 <0>         0.1576
     16 C10        -3.0660    0.9442    0.0193 C.2       1 <0>         0.0527
     17 C11        -2.6186    1.2571    1.2569 C.2       1 <0>        -0.1613
     18 C12        -3.7558    1.2075    2.1484 C.ar      1 <0>        -0.0561
     19 C13        -3.8972    1.4357    3.5212 C.ar      1 <0>        -0.1074
     20 C14        -5.1712    1.2933    4.0505 C.ar      1 <0>         0.1121
     21 C15        -6.2577    0.9396    3.2596 C.ar      1 <0>        -0.1692
     22 C16        -6.1365    0.7097    1.9009 C.ar      1 <0>        -0.0869
     23 C17        -4.8673    0.8471    1.3435 C.ar      1 <0>         0.0776
     24 N3         -4.4108    0.6967    0.0627 N.pl3     1 <0>        -0.5596
     25 H2         -4.9581    0.4513   -0.6997 H         1 <0>         0.4166
     26 O4         -5.3622    1.5050    5.3802 O.3       1 <0>        -0.3170
     27 C18        -6.6922    1.3452    5.8780 C.3       1 <0>         0.0245
     28 C19        -1.1779    1.5820    1.5630 C.3       1 <0>        -0.0674
     29 C20        -0.3239    1.1116    0.3775 C.3       1 <0>        -0.0001
     30 H3         -2.5403    5.4088   -1.9492 H         1 <0>         0.0754
     31 H4         -3.8605    6.5992   -2.0403 H         1 <0>         0.0633
     32 H5         -4.1221    5.0410   -1.2205 H         1 <0>         0.0803
     33 H6         -3.7874    5.2550   -5.4784 H         1 <0>         0.0791
     34 H7         -3.5263    6.6923   -4.4614 H         1 <0>         0.0894
     35 H8         -2.3089    5.3942   -4.4971 H         1 <0>         0.0617
     36 H9         -6.0999    4.6036   -2.6832 H         1 <0>         0.0625
     37 H10        -5.8383    6.1617   -3.5029 H         1 <0>         0.0897
     38 H11        -5.9271    4.6597   -4.4538 H         1 <0>         0.0774
     39 H12        -4.8843    2.7446   -6.2782 H         1 <0>         0.4485
     40 H13        -3.1710   -0.8982   -4.3898 H         1 <0>         0.4311
     41 H14        -3.0551    1.7109    4.1390 H         1 <0>         0.1421
     42 H15        -7.2292    0.8411    3.7210 H         1 <0>         0.1358
     43 H16        -6.9895    0.4351    1.2980 H         1 <0>         0.1355
     44 H17        -6.7051    1.5426    6.9499 H         1 <0>         0.1046
     45 H18        -7.3563    2.0457    5.3715 H         1 <0>         0.0567
     46 H19        -7.0296    0.3256    5.6922 H         1 <0>         0.0572
     47 H20        -0.8675    1.0627    2.4697 H         1 <0>         0.1188
     48 H21        -1.0630    2.6577    1.6959 H         1 <0>         0.0994
     49 H22        -0.2909    0.0222    0.3630 H         1 <0>         0.1325
     50 H23         0.6876    1.5045    0.4797 H         1 <0>         0.1388
     51 N4         -0.9100    1.6106   -0.8836 N.4       1 <0>        -0.5128
     52 H24        -1.1090    2.6135   -0.7900 H         1 <0>         0.4386
     53 H25        -0.2405    1.4644   -1.6482 H         1 <0>         0.4339
@<TRIPOS>BOND
     1    1    2 1
     2    1   30 1
     3    1   31 1
     4    1   32 1
     5    2    3 1
     6    2    4 1
     7    2    5 1
     8    3   33 1
     9    3   34 1
    10    3   35 1
    11    4   36 1
    12    4   37 1
    13    4   38 1
    14    5   11 1
    15    5    6 am
    16    6    7 2
    17    6    8 1
    18    8    9 2
    19    8   14 1
    20    9   10 1
    21    9   13 1
    22   10   11 2
    23   11   12 1
    24   12   39 1
    25   13   40 1
    26   14   15 1
    27   14   16 1
    28   14   51 1
    29   16   24 1
    30   16   17 2
    31   17   18 1
    32   17   28 1
    33   18   23 ar
    34   18   19 ar
    35   19   20 ar
    36   19   41 1
    37   20   21 ar
    38   20   26 1
    39   21   22 ar
    40   21   42 1
    41   22   23 ar
    42   22   43 1
    43   23   24 1
    44   24   25 1
    45   26   27 1
    46   27   44 1
    47   27   45 1
    48   27   46 1
    49   28   29 1
    50   28   47 1
    51   28   48 1
    52   29   49 1
    53   29   50 1
    54   29   51 1
    55   51   52 1
    56   51   53 1
@<TRIPOS>MOLECULE
ZINC22061345
   64    68     0     0     0
SMALL
USER_CHARGES
(7S,9S)-9-acetyl-7-[(2R,4R,5S,6R)-4-amino-5-hydroxy-6-methyl-tetrahydropyran-2-yl]oxy-6,9,11-trihydroxy-8,10-dihydro-7H-tetracene-5,12-dione
@<TRIPOS>ATOM
      1 C1         -5.2205   -3.0441   -0.2613 C.3       1 <0>        -0.1472
      2 C2         -4.1045   -3.7523   -1.0318 C.3       1 <0>         0.1123
      3 H1         -3.9090   -3.2568   -1.9943 H         1 <0>         0.0789
      4 C3         -4.4749   -5.2247   -1.2287 C.3       1 <0>         0.0731
      5 H2         -4.7161   -5.7104   -0.2716 H         1 <0>         0.0928
      6 C4         -3.3269   -5.9402   -1.9473 C.3       1 <0>         0.0034
      7 H3         -3.1985   -5.5480   -2.9669 H         1 <0>         0.1479
      8 C5         -2.0421   -5.7681   -1.1312 C.3       1 <0>        -0.1573
      9 C6         -1.7656   -4.2748   -0.9381 C.3       1 <0>         0.2606
     10 H4         -1.5937   -3.7392   -1.8834 H         1 <0>         0.0711
     11 O1         -2.8847   -3.6639   -0.2926 O.3       1 <0>        -0.3920
     12 O2         -0.5992   -4.1067   -0.1299 O.3       1 <0>        -0.3284
     13 C7         -0.1177   -2.7623   -0.0767 C.3       1 <0>         0.1548
     14 H5         -0.4372   -2.2699   -1.0070 H         1 <0>         0.0789
     15 C8         -0.7141   -2.0622    1.1422 C.3       1 <0>        -0.1204
     16 C9         -0.0239   -0.7023    1.3025 C.3       1 <0>         0.1093
     17 C10         1.4186   -0.9448    1.7405 C.3       1 <0>        -0.1003
     18 C11         2.0915   -1.9386    0.8288 C.ar      1 <0>        -0.0156
     19 C12         1.3874   -2.7764    0.0015 C.ar      1 <0>        -0.0782
     20 C13         2.0667   -3.6865   -0.8199 C.ar      1 <0>         0.2259
     21 C14         3.4588   -3.7481   -0.8090 C.ar      1 <0>        -0.2150
     22 C15         4.1824   -2.8846    0.0383 C.ar      1 <0>        -0.1975
     23 C16         3.4921   -1.9866    0.8500 C.ar      1 <0>         0.2052
     24 O3          4.1811   -1.1525    1.6675 O.3       1 <0>        -0.5061
     25 C17         5.6543   -2.9363    0.0621 C.2       1 <0>         0.4545
     26 O4          6.2781   -2.1903    0.7917 O.2       1 <0>        -0.4449
     27 C18         6.3716   -3.8963   -0.8030 C.ar      1 <0>        -0.1155
     28 C19         7.7625   -3.9534   -0.7856 C.ar      1 <0>        -0.0640
     29 C20         8.4256   -4.8547   -1.5990 C.ar      1 <0>        -0.0915
     30 C21         7.7157   -5.7011   -2.4315 C.ar      1 <0>        -0.0947
     31 C22         6.3334   -5.6577   -2.4611 C.ar      1 <0>        -0.0651
     32 C23         5.6499   -4.7572   -1.6485 C.ar      1 <0>        -0.1201
     33 C24         4.1730   -4.7039   -1.6728 C.2       1 <0>         0.4625
     34 O5          3.5488   -5.4479   -2.4041 O.2       1 <0>        -0.4590
     35 O6          1.3633   -4.5143   -1.6316 O.3       1 <0>        -0.5065
     36 C25        -0.0385    0.0328   -0.0130 C.2       1 <0>         0.3230
     37 O7          0.9114   -0.0387   -0.7552 O.2       1 <0>        -0.4328
     38 C26        -1.2385    0.8572   -0.4022 C.3       1 <0>        -0.2029
     39 O8         -0.7047    0.0703    2.2933 O.3       1 <0>        -0.5628
     40 N1         -3.6411   -7.3696   -2.0735 N.4       1 <0>        -0.6843
     41 O9         -5.6631   -5.3168   -2.0171 O.3       1 <0>        -0.5703
     42 H6         -6.1593   -3.1123   -0.8305 H         1 <0>         0.0884
     43 H7         -4.9538   -1.9864   -0.1192 H         1 <0>         0.0777
     44 H8         -5.3507   -3.5245    0.7197 H         1 <0>         0.0706
     45 H9         -2.1632   -6.2512   -0.1504 H         1 <0>         0.1099
     46 H10        -1.2019   -6.2331   -1.6677 H         1 <0>         0.1159
     47 H11        -1.7946   -1.9212    0.9919 H         1 <0>         0.1021
     48 H12        -0.5458   -2.6783    2.0378 H         1 <0>         0.0991
     49 H13         1.9761    0.0028    1.7071 H         1 <0>         0.0993
     50 H14         1.4286   -1.3401    2.7670 H         1 <0>         0.1088
     51 H15         5.2804   -1.1863    1.6878 H         1 <0>         0.4478
     52 H16         8.3228   -3.2952   -0.1382 H         1 <0>         0.1484
     53 H17         9.5047   -4.8980   -1.5837 H         1 <0>         0.1438
     54 H18         8.2441   -6.4002   -3.0627 H         1 <0>         0.1428
     55 H19         5.7852   -6.3215   -3.1132 H         1 <0>         0.1457
     56 H20         1.8918   -5.2303   -2.2781 H         1 <0>         0.4380
     57 H21        -1.0653    1.3144   -1.3876 H         1 <0>         0.0840
     58 H22        -1.3984    1.6477    0.3458 H         1 <0>         0.1010
     59 H23        -2.1276    0.2112   -0.4489 H         1 <0>         0.0934
     60 H24        -0.3485    1.0805    2.5436 H         1 <0>         0.4194
     61 H25        -2.8160   -7.8822   -2.5897 H         1 <0>         0.4646
     62 H26        -4.5681   -7.4915   -2.6530 H         1 <0>         0.4541
     63 H27        -6.0842   -6.3025   -2.2642 H         1 <0>         0.4082
     64 H28        -3.7745   -7.8055   -1.0724 H         1 <0>         0.4555
@<TRIPOS>BOND
     1    1    2 1
     2    1   42 1
     3    1   43 1
     4    1   44 1
     5    2    3 1
     6    2   11 1
     7    2    4 1
     8    4    5 1
     9    4    6 1
    10    4   41 1
    11    6    7 1
    12    6    8 1
    13    6   40 1
    14    8    9 1
    15    8   45 1
    16    8   46 1
    17    9   10 1
    18    9   11 1
    19    9   12 1
    20   12   13 1
    21   13   14 1
    22   13   19 1
    23   13   15 1
    24   15   16 1
    25   15   47 1
    26   15   48 1
    27   16   17 1
    28   16   36 1
    29   16   39 1
    30   17   18 1
    31   17   49 1
    32   17   50 1
    33   18   23 ar
    34   18   19 ar
    35   19   20 ar
    36   20   21 ar
    37   20   35 1
    38   21   33 1
    39   21   22 ar
    40   22   23 ar
    41   22   25 1
    42   23   24 1
    43   24   51 1
    44   25   26 2
    45   25   27 1
    46   27   32 ar
    47   27   28 ar
    48   28   29 ar
    49   28   52 1
    50   29   30 ar
    51   29   53 1
    52   30   31 ar
    53   30   54 1
    54   31   32 ar
    55   31   55 1
    56   32   33 1
    57   33   34 2
    58   35   56 1
    59   36   37 2
    60   36   38 1
    61   38   57 1
    62   38   58 1
    63   38   59 1
    64   39   60 1
    65   40   61 1
    66   40   62 1
    67   40   64 1
    68   41   63 1
@<TRIPOS>MOLECULE
ZINC43123284
   49    51     0     0     0
SMALL
USER_CHARGES

@<TRIPOS>ATOM
      1 C1         -0.0465    1.4343    0.6025 C.3       1 <0>        -0.1222
      2 C2          0.0030   -0.0396    0.2919 C.ar      1 <0>        -0.1052
      3 C3         -1.1519   -0.7947    0.2973 C.ar      1 <0>         0.1337
      4 N1         -1.1169   -2.0855    0.0260 N.ar      1 <0>        -0.4412
      5 C4          0.0117   -2.7071   -0.2594 C.ar      1 <0>         0.1383
      6 C5          1.2089   -2.0223   -0.2852 C.ar      1 <0>        -0.0975
      7 C6          1.2141   -0.6568   -0.0101 C.ar      1 <0>         0.2266
      8 O1          2.3710    0.0529   -0.0306 O.3       1 <0>        -0.3157
      9 C7          3.1020    0.1375    1.1944 C.3       1 <0>         0.0289
     10 C8          2.4928   -2.7404   -0.6121 C.3       1 <0>        -0.1259
     11 C9         -0.0075   -4.1836   -0.5605 C.3       1 <0>         0.1511
     12 N2         -1.3693   -4.6980   -0.3953 N.pl3     1 <0>        -0.6242
     13 C10        -1.8469   -5.0676    0.8548 C.ar      1 <0>         0.4428
     14 C11        -3.2193   -4.9576    1.1108 C.ar      1 <0>        -0.0479
     15 C12        -3.6927   -5.3329    2.3558 C.ar      1 <0>         0.2697
     16 N3         -2.8277   -5.7795    3.2601 N.ar      1 <0>        -0.5504
     17 C13        -1.5354   -5.8678    2.9866 C.ar      1 <0>         0.6097
     18 N4         -1.0428   -5.5194    1.8046 N.ar      1 <0>        -0.5704
     19 N5         -0.6716   -6.3372    3.9634 N.pl3     1 <0>        -0.8013
     20 Cl1        -5.3844   -5.2219    2.7291 Cl        1 <0>         0.0229
     21 N6         -4.0755   -4.4697    0.1152 N.am      1 <0>        -0.6440
     22 C14        -3.6498   -4.3704   -1.1601 C.2       1 <0>         0.5024
     23 O2         -4.3839   -3.8996   -2.0032 O.2       1 <0>        -0.4839
     24 C15        -2.2726   -4.8323   -1.5477 C.3       1 <0>         0.1407
     25 H1         -1.9034   -4.2229   -2.3726 H         1 <0>         0.1432
     26 C16        -2.3335   -6.2983   -1.9812 C.3       1 <0>        -0.1356
     27 C17        -0.9594   -6.7368   -2.4914 C.3       1 <0>         0.0822
     28 O3         -1.0163   -8.1061   -2.8963 O.3       1 <0>        -0.5667
     29 H2         -0.2024    1.9948   -0.3193 H         1 <0>         0.1047
     30 H3         -0.8672    1.6329    1.2917 H         1 <0>         0.0932
     31 H4          0.8942    1.7411    1.0596 H         1 <0>         0.0930
     32 H5         -2.0961   -0.3234    0.5267 H         1 <0>         0.2125
     33 H6          2.4817    0.6104    1.9558 H         1 <0>         0.0646
     34 H7          3.3789   -0.8645    1.5222 H         1 <0>         0.0650
     35 H8          4.0030    0.7310    1.0396 H         1 <0>         0.1234
     36 H9          2.6264   -2.7718   -1.6934 H         1 <0>         0.1067
     37 H10         3.3307   -2.2118   -0.1576 H         1 <0>         0.0961
     38 H11         2.4500   -3.7572   -0.2217 H         1 <0>         0.0938
     39 H12         0.3216   -4.3496   -1.5862 H         1 <0>         0.1439
     40 H13         0.6626   -4.7029    0.1247 H         1 <0>         0.1513
     41 H14        -1.0165   -6.5954    4.8324 H         1 <0>         0.4264
     42 H15         0.2779   -6.4076    3.7780 H         1 <0>         0.4221
     43 H16        -4.9793   -4.2023    0.3444 H         1 <0>         0.4240
     44 H17        -2.6197   -6.9171   -1.1307 H         1 <0>         0.0850
     45 H18        -3.0697   -6.4116   -2.7770 H         1 <0>         0.1052
     46 H19        -0.6732   -6.1181   -3.3419 H         1 <0>         0.0516
     47 H20        -0.2232   -6.6235   -1.6956 H         1 <0>         0.0483
     48 H21        -0.1780   -8.4522   -3.2317 H         1 <0>         0.3901
     49 H22        -1.9442   -2.5920    0.0369 H         1 <0>         0.4392
@<TRIPOS>BOND
     1    1    2 1
     2    1   29 1
     3    1   30 1
     4    1   31 1
     5    2    7 ar
     6    2    3 ar
     7    3    4 ar
     8    3   32 1
     9    4    5 ar
    10    4   49 1
    11    5    6 ar
    12    5   11 1
    13    6    7 ar
    14    6   10 1
    15    7    8 1
    16    8    9 1
    17    9   33 1
    18    9   34 1
    19    9   35 1
    20   10   36 1
    21   10   37 1
    22   10   38 1
    23   11   12 1
    24   11   39 1
    25   11   40 1
    26   12   24 1
    27   12   13 1
    28   13   18 ar
    29   13   14 ar
    30   14   15 ar
    31   14   21 1
    32   15   16 ar
    33   15   20 1
    34   16   17 ar
    35   17   18 ar
    36   17   19 1
    37   19   41 1
    38   19   42 1
    39   21   22 am
    40   21   43 1
    41   22   23 2
    42   22   24 1
    43   24   25 1
    44   24   26 1
    45   26   27 1
    46   26   44 1
    47   26   45 1
    48   27   28 1
    49   27   46 1
    50   27   47 1
    51   28   48 1
@<TRIPOS>MOLECULE
ZINC47964141
   50    51     0     0     0
SMALL
USER_CHARGES

@<TRIPOS>ATOM
      1 C1         -0.1298    1.4667   -0.0424 C.3       1 <0>        -0.0532
      2 N1          0.0927    0.0148   -0.0550 N.4       1 <0>        -0.3898
      3 C2          0.8492   -0.3543   -1.2589 C.3       1 <0>        -0.0548
      4 C3          0.8535   -0.3744    1.1399 C.3       1 <0>         0.0822
      5 H1          1.8005    0.1649    1.1592 H         1 <0>         0.1678
      6 C4          1.1246   -1.8798    1.1039 C.3       1 <0>         0.1003
      7 N2         -0.1407   -2.6001    0.9417 N.am      1 <0>        -0.7208
      8 C5         -0.1385   -3.9381    0.7802 C.2       1 <0>         0.5245
      9 O1          0.9117   -4.5463    0.7690 O.2       1 <0>        -0.4746
     10 C6         -1.4280   -4.6722    0.6149 C.2       1 <0>         0.4982
     11 O2         -2.4784   -4.0640    0.6260 O.2       1 <0>        -0.4855
     12 N3         -1.4258   -6.0103    0.4533 N.am      1 <0>        -0.5744
     13 C7         -2.6212   -6.6908    0.3001 C.2       1 <0>         0.0562
     14 C8         -2.8106   -8.0552    0.1296 C.2       1 <0>        -0.2445
     15 C9         -4.1760   -8.5056   -0.0074 C.2       1 <0>        -0.1047
     16 C10        -5.1189   -7.5456    0.0459 C.2       1 <0>        -0.2354
     17 S1         -4.1745   -6.0566    0.2850 S.3       1 <0>         0.2879
     18 C11        -1.6822   -8.9913    0.0901 C.2       1 <0>         0.5868
     19 O3         -0.5438   -8.5775    0.2084 O.2       1 <0>        -0.5599
     20 N4         -1.9060  -10.3098   -0.0771 N.am      1 <0>        -0.8438
     21 C12         0.0577   -0.0366    2.3742 C.ar      1 <0>        -0.1805
     22 C13        -1.3199    0.0456    2.3077 C.ar      1 <0>        -0.0985
     23 C14        -2.0505    0.3559    3.4396 C.ar      1 <0>        -0.1316
     24 C15        -1.4049    0.5843    4.6410 C.ar      1 <0>        -0.0496
     25 C16        -0.0279    0.5029    4.7128 C.ar      1 <0>        -0.1906
     26 C17         0.7072    0.1864    3.5794 C.ar      1 <0>         0.1650
     27 O4          2.0617    0.1002    3.6487 O.3       1 <0>        -0.3172
     28 C18         2.6628    0.3424    4.9223 C.3       1 <0>         0.0223
     29 H2          0.8309    1.9815   -0.0398 H         1 <0>         0.1275
     30 H3         -0.6944    1.7555   -0.9290 H         1 <0>         0.1293
     31 H4         -0.6912    1.7406    0.8509 H         1 <0>         0.1273
     32 H5          1.8209    0.1392   -1.2429 H         1 <0>         0.1304
     33 H6          0.9907   -1.4348   -1.2821 H         1 <0>         0.1238
     34 H7          0.2972   -0.0410   -2.1451 H         1 <0>         0.1318
     35 H8          1.7838   -2.1104    0.2671 H         1 <0>         0.1104
     36 H9          1.6000   -2.1857    2.0359 H         1 <0>         0.1217
     37 H10        -0.9801   -2.1140    0.9507 H         1 <0>         0.4066
     38 H11        -0.5864   -6.4963    0.4444 H         1 <0>         0.4459
     39 H12        -4.4253   -9.5475   -0.1444 H         1 <0>         0.1494
     40 H13        -6.1905   -7.6539   -0.0332 H         1 <0>         0.1956
     41 H14        -2.8133  -10.6396   -0.1714 H         1 <0>         0.4036
     42 H15        -1.1597  -10.9289   -0.1032 H         1 <0>         0.4085
     43 H16        -1.8264   -0.1324    1.3706 H         1 <0>         0.1213
     44 H17        -3.1272    0.4204    3.3854 H         1 <0>         0.1407
     45 H18        -1.9778    0.8269    5.5237 H         1 <0>         0.1409
     46 H19         0.4758    0.6814    5.6513 H         1 <0>         0.1439
     47 H20         2.4161    1.3507    5.2547 H         1 <0>         0.0650
     48 H21         2.2859   -0.3809    5.6454 H         1 <0>         0.0650
     49 H22         3.7450    0.2421    4.8383 H         1 <0>         0.1125
     50 H23        -0.7967   -0.4618   -0.0574 H         1 <0>         0.4172
@<TRIPOS>BOND
     1    1    2 1
     2    1   29 1
     3    1   30 1
     4    1   31 1
     5    2    3 1
     6    2    4 1
     7    2   50 1
     8    3   32 1
     9    3   33 1
    10    3   34 1
    11    4    5 1
    12    4    6 1
    13    4   21 1
    14    6    7 1
    15    6   35 1
    16    6   36 1
    17    7    8 am
    18    7   37 1
    19    8    9 2
    20    8   10 1
    21   10   11 2
    22   10   12 am
    23   12   13 1
    24   12   38 1
    25   13   17 1
    26   13   14 2
    27   14   15 1
    28   14   18 1
    29   15   16 2
    30   15   39 1
    31   16   17 1
    32   16   40 1
    33   18   19 2
    34   18   20 am
    35   20   41 1
    36   20   42 1
    37   21   26 ar
    38   21   22 ar
    39   22   23 ar
    40   22   43 1
    41   23   24 ar
    42   23   44 1
    43   24   25 ar
    44   24   45 1
    45   25   26 ar
    46   25   46 1
    47   26   27 1
    48   27   28 1
    49   28   47 1
    50   28   48 1
    51   28   49 1
@<TRIPOS>MOLECULE
ZINC63808270
   53    55     0     0     0
SMALL
USER_CHARGES

@<TRIPOS>ATOM
      1 C1         -0.1889   -2.7635   -0.6523 C.3       1 <0>        -0.1252
      2 C2          1.0369   -1.8509   -0.5771 C.3       1 <0>         0.1037
      3 H1          1.8939   -2.3258   -1.0547 H         1 <0>         0.0809
      4 C3          0.7426   -0.5157   -1.2261 C.2       1 <0>        -0.0829
      5 C4          0.8789    0.4060   -0.2828 C.2       1 <0>         0.1513
      6 N1          1.2330   -0.1600    0.9322 N.pl3     1 <0>        -0.5866
      7 N2          1.3474   -1.5191    0.8273 N.3       1 <0>        -0.2737
      8 C5          2.6999   -1.9655    1.1870 C.3       1 <0>        -0.0184
      9 C6          0.6747    1.8827   -0.5036 C.3       1 <0>        -0.1087
     10 N3          0.3956   -0.2969   -2.5597 N.am      1 <0>        -0.5975
     11 C7          1.2092   -0.7226   -3.5463 C.2       1 <0>         0.5034
     12 O1          2.1980   -1.3752   -3.2789 O.2       1 <0>        -0.5078
     13 C8          0.8952   -0.3921   -4.9668 C.2       1 <0>         0.5175
     14 O2         -0.0930    0.2601   -5.2341 O.2       1 <0>        -0.5098
     15 N4          1.7088   -0.8177   -5.9534 N.am      1 <0>        -0.7032
     16 C9          1.4005   -0.4932   -7.3483 C.3       1 <0>         0.1068
     17 C10         2.4740   -1.0907   -8.2602 C.3       1 <0>         0.1031
     18 N5          2.1657   -0.7662   -9.6552 N.am      1 <0>        -0.7049
     19 C11         2.9793   -1.1919  -10.6417 C.2       1 <0>         0.5275
     20 O3          3.9667   -1.8435  -10.3747 O.2       1 <0>        -0.4937
     21 C12         2.6621   -0.8581  -12.0767 C.3       1 <0>         0.0680
     22 H2          2.6257    0.2230  -12.2113 H         1 <0>         0.2014
     23 C13         1.3418   -1.4779  -12.4765 C.2       1 <0>         0.0315
     24 C14         1.6184   -2.3253  -13.4938 C.ar      1 <0>        -0.1483
     25 C15         0.7771   -3.2140  -14.3042 C.ar      1 <0>        -0.0145
     26 C16         1.3543   -3.9594  -15.2739 C.ar      1 <0>        -0.1462
     27 C17         2.7324   -3.9046  -15.5238 C.ar      1 <0>         0.0624
     28 C18         3.5699   -3.1126  -14.8214 C.ar      1 <0>        -0.2087
     29 C19         3.0708   -2.2856  -13.7775 C.ar      1 <0>         0.3388
     30 N6          3.6698   -1.4449  -12.9670 N.pl3     1 <0>        -0.5598
     31 H3         -1.0326   -2.2799   -0.1601 H         1 <0>         0.0623
     32 H4         -0.4373   -2.9530   -1.6966 H         1 <0>         0.0567
     33 H5          0.0301   -3.7078   -0.1538 H         1 <0>         0.0603
     34 H6          1.3816    0.3416    1.7490 H         1 <0>         0.4323
     35 H7          3.4283   -1.4735    0.5424 H         1 <0>         0.0389
     36 H8          2.9028   -1.7086    2.2267 H         1 <0>         0.0765
     37 H9          2.7722   -3.0455    1.0588 H         1 <0>         0.0851
     38 H10        -0.3452    2.1533   -0.2303 H         1 <0>         0.0858
     39 H11         1.3770    2.4429    0.1137 H         1 <0>         0.0764
     40 H12         0.8445    2.1199   -1.5538 H         1 <0>         0.0802
     41 H13        -0.4312    0.1615   -2.7768 H         1 <0>         0.4174
     42 H14         2.4985   -1.3389   -5.7398 H         1 <0>         0.4184
     43 H15         0.4278   -0.9087   -7.6116 H         1 <0>         0.0855
     44 H16         1.3791    0.5894   -7.4733 H         1 <0>         0.0858
     45 H17         3.4467   -0.6753   -7.9970 H         1 <0>         0.0914
     46 H18         2.4954   -2.1733   -8.1352 H         1 <0>         0.0909
     47 H19         1.3759   -0.2451   -9.8687 H         1 <0>         0.4131
     48 H20         0.3740   -1.2833  -12.0384 H         1 <0>         0.2169
     49 H21        -0.2869   -3.2721  -14.1285 H         1 <0>         0.1674
     50 H22         0.7372   -4.6143  -15.8712 H         1 <0>         0.1617
     51 H23         3.1410   -4.5217  -16.3103 H         1 <0>         0.1648
     52 H24         4.6247   -3.1068  -15.0533 H         1 <0>         0.1645
     53 H25         4.6189   -1.2448  -12.9574 H         1 <0>         0.4613
@<TRIPOS>BOND
     1    1    2 1
     2    1   31 1
     3    1   32 1
     4    1   33 1
     5    2    3 1
     6    2    7 1
     7    2    4 1
     8    4    5 2
     9    4   10 1
    10    5    6 1
    11    5    9 1
    12    6    7 1
    13    6   34 1
    14    7    8 1
    15    8   35 1
    16    8   36 1
    17    8   37 1
    18    9   38 1
    19    9   39 1
    20    9   40 1
    21   10   11 am
    22   10   41 1
    23   11   12 2
    24   11   13 1
    25   13   14 2
    26   13   15 am
    27   15   16 1
    28   15   42 1
    29   16   17 1
    30   16   43 1
    31   16   44 1
    32   17   18 1
    33   17   45 1
    34   17   46 1
    35   18   19 am
    36   18   47 1
    37   19   20 2
    38   19   21 1
    39   21   22 1
    40   21   30 1
    41   21   23 1
    42   23   24 2
    43   23   48 1
    44   24   29 ar
    45   24   25 ar
    46   25   26 ar
    47   25   49 1
    48   26   27 ar
    49   26   50 1
    50   27   28 ar
    51   27   51 1
    52   28   29 ar
    53   28   52 1
    54   29   30 2
    55   30   53 1
@<TRIPOS>MOLECULE
ZINC08790692
   60    65     0     0     0
SMALL
USER_CHARGES
2-(benzo[1,3]dioxol-5-ylmethyl-dimethyl-trioxo-BLAHyl)acetamide
@<TRIPOS>ATOM
      1 C1         -8.4729    0.8017   -4.6800 C.3       1 <0>        -0.1345
      2 C2         -7.3422   -0.1481   -4.3788 C.ar      1 <0>        -0.0094
      3 C3         -7.5240   -1.5090   -4.5447 C.ar      1 <0>        -0.1239
      4 C4         -6.4861   -2.3809   -4.2682 C.ar      1 <0>        -0.0444
      5 C5         -5.2755   -1.8938   -3.8288 C.ar      1 <0>        -0.2045
      6 C6         -5.0808   -0.5264   -3.6583 C.ar      1 <0>         0.1768
      7 C7         -6.1313    0.3441   -3.9386 C.ar      1 <0>        -0.0882
      8 C8         -5.9444    1.8288   -3.7599 C.3       1 <0>        -0.1296
      9 N1         -3.7825   -0.2758   -3.2089 N.am      1 <0>        -0.6329
     10 C9         -3.0687   -1.4085   -3.0613 C.2       1 <0>         0.5179
     11 O1         -1.9178   -1.4956   -2.6886 O.2       1 <0>        -0.4288
     12 C10        -3.9756   -2.5443   -3.4484 C.3       1 <0>         0.0936
     13 C11        -4.1690   -3.5462   -2.2830 C.3       1 <0>        -0.1160
     14 H1         -5.1967   -3.8963   -2.1856 H         1 <0>         0.1806
     15 C12        -3.1713   -4.6928   -2.6072 C.3       1 <0>        -0.1452
     16 H2         -3.6551   -5.6664   -2.6862 H         1 <0>         0.1783
     17 C13        -2.4690   -4.2689   -3.9150 C.3       1 <0>         0.0563
     18 H3         -1.5250   -3.7707   -3.6942 H         1 <0>         0.1675
     19 C14        -2.2305   -5.4866   -4.8101 C.3       1 <0>        -0.1630
     20 C15        -1.4370   -5.0714   -6.0222 C.2       1 <0>         0.5123
     21 O2         -1.0958   -3.9154   -6.1567 O.2       1 <0>        -0.5503
     22 N2         -1.1066   -5.9847   -6.9566 N.am      1 <0>        -0.8337
     23 C16        -2.1796   -4.6239   -1.4677 C.2       1 <0>         0.5381
     24 O3         -1.2237   -5.3558   -1.3260 O.2       1 <0>        -0.4367
     25 N3         -2.5208   -3.6291   -0.6406 N.am      1 <0>        -0.5515
     26 C17        -3.6230   -2.9612   -1.0002 C.2       1 <0>         0.5305
     27 O4         -4.1068   -2.0299   -0.3935 O.2       1 <0>        -0.4330
     28 C18        -1.7537   -3.3018    0.5638 C.3       1 <0>         0.1468
     29 C19        -0.6918   -2.2882    0.2229 C.ar      1 <0>        -0.1159
     30 C20         0.5610   -2.7109   -0.1810 C.ar      1 <0>        -0.0797
     31 C21         1.5383   -1.7850   -0.4947 C.ar      1 <0>        -0.1025
     32 C22         1.2642   -0.4299   -0.4044 C.ar      1 <0>         0.0529
     33 C23         0.0021   -0.0041    0.0020 C.ar      1 <0>         0.0330
     34 C24        -0.9727   -0.9377    0.3145 C.ar      1 <0>        -0.0696
     35 O5         -0.0164    1.3608    0.0095 O.3       1 <0>        -0.3084
     36 C25         1.3658    1.7640   -0.0015 C.3       1 <0>         0.2122
     37 O6          2.0365    0.6682   -0.6514 O.3       1 <0>        -0.3057
     38 H4         -9.0680    0.9551   -3.7798 H         1 <0>         0.0892
     39 H5         -8.0663    1.7563   -5.0139 H         1 <0>         0.0823
     40 H6         -9.1020    0.3805   -5.4641 H         1 <0>         0.0814
     41 H7         -8.4737   -1.8901   -4.8897 H         1 <0>         0.1481
     42 H8         -6.6256   -3.4442   -4.3966 H         1 <0>         0.1407
     43 H9         -6.2218    2.1102   -2.7441 H         1 <0>         0.0850
     44 H10        -4.9003    2.0873   -3.9362 H         1 <0>         0.0664
     45 H11        -6.5758    2.3626   -4.4702 H         1 <0>         0.0881
     46 H12        -3.4352    0.6109   -3.0244 H         1 <0>         0.4357
     47 H13        -1.6762   -6.2430   -4.2546 H         1 <0>         0.1566
     48 H14        -3.1890   -5.8980   -5.1268 H         1 <0>         0.1310
     49 H15        -1.3795   -6.9093   -6.8489 H         1 <0>         0.4119
     50 H16        -0.5958   -5.7175   -7.7367 H         1 <0>         0.4170
     51 H17        -1.2826   -4.2051    0.9512 H         1 <0>         0.1180
     52 H18        -2.4220   -2.8879    1.3189 H         1 <0>         0.1131
     53 H19         0.7764   -3.7668   -0.2520 H         1 <0>         0.1414
     54 H20         2.5162   -2.1180   -0.8096 H         1 <0>         0.1397
     55 H21        -1.9523   -0.6103    0.6300 H         1 <0>         0.1332
     56 H22         1.4920    2.6835   -0.5731 H         1 <0>         0.1358
     57 H23         1.7360    1.8905    1.0159 H         1 <0>         0.0902
     58 N4         -3.4072   -3.3280   -4.5314 N.4       1 <0>        -0.4847
     59 H24        -2.9134   -2.7157   -5.1913 H         1 <0>         0.4517
     60 H25        -4.1476   -3.8385   -5.0266 H         1 <0>         0.4390
@<TRIPOS>BOND
     1    1    2 1
     2    1   38 1
     3    1   39 1
     4    1   40 1
     5    2    7 ar
     6    2    3 ar
     7    3    4 ar
     8    3   41 1
     9    4    5 ar
    10    4   42 1
    11    5   12 1
    12    5    6 ar
    13    6    7 ar
    14    6    9 1
    15    7    8 1
    16    8   43 1
    17    8   44 1
    18    8   45 1
    19    9   10 am
    20    9   46 1
    21   10   11 2
    22   10   12 1
    23   12   13 1
    24   12   58 1
    25   13   14 1
    26   13   26 1
    27   13   15 1
    28   15   16 1
    29   15   17 1
    30   15   23 1
    31   17   18 1
    32   17   19 1
    33   17   58 1
    34   19   20 1
    35   19   47 1
    36   19   48 1
    37   20   21 2
    38   20   22 am
    39   22   49 1
    40   22   50 1
    41   23   24 2
    42   23   25 am
    43   25   26 am
    44   25   28 1
    45   26   27 2
    46   28   29 1
    47   28   51 1
    48   28   52 1
    49   29   34 ar
    50   29   30 ar
    51   30   31 ar
    52   30   53 1
    53   31   32 ar
    54   31   54 1
    55   32   37 1
    56   32   33 ar
    57   33   34 ar
    58   33   35 1
    59   34   55 1
    60   35   36 1
    61   36   37 1
    62   36   56 1
    63   36   57 1
    64   58   59 1
    65   58   60 1
@<TRIPOS>MOLECULE
ZINC20837743
   65    67     0     0     0
SMALL
USER_CHARGES
2-[[5-(N'-cycloheptylidenehydrazino)-4H-1,2,4-triazol-3-yl]sulfanyl]-N-(2,2,6,6-tetramethyl-4-piperidyl)acetamide
@<TRIPOS>ATOM
      1 C1         -2.3005    1.1039   -2.2552 C.3       1 <0>        -0.1771
      2 C2         -2.5997    1.7186   -0.8826 C.3       1 <0>         0.0703
      3 C3         -2.4542    3.2361   -0.9609 C.3       1 <0>        -0.1447
      4 C4         -0.9784    3.6333   -0.9778 C.3       1 <0>         0.1407
      5 C5         -0.3265    3.1186    0.3068 C.3       1 <0>        -0.1403
      6 C6         -0.4259    1.5948    0.3668 C.3       1 <0>         0.0570
      7 N1         -1.7783    1.1204    0.1494 N.4       1 <0>        -0.5137
      8 C7          0.0178    1.1554    1.7795 C.3       1 <0>        -0.1801
      9 C8          0.5533    0.9729   -0.6334 C.3       1 <0>        -0.1798
     10 N2         -0.8715    5.0970   -1.0199 N.am      1 <0>        -0.7391
     11 C9         -0.8943    5.7405   -2.2039 C.2       1 <0>         0.5452
     12 O1         -1.0031    5.1105   -3.2345 O.2       1 <0>        -0.5155
     13 C10        -0.7846    7.2429   -2.2471 C.3       1 <0>        -0.1675
     14 S1         -0.8459    7.8043   -3.9710 S.3       1 <0>         0.1117
     15 C11        -0.7079    9.5570   -3.8536 C.2       1 <0>         0.2068
     16 N3         -0.7051   10.4341   -4.9009 N.2       1 <0>        -0.5555
     17 C12        -0.5808   11.6974   -4.3937 C.2       1 <0>         0.5474
     18 N4         -0.5099   11.6046   -3.0881 N.pl3     1 <0>        -0.4767
     19 N5         -0.5956   10.2489   -2.7452 N.2       1 <0>        -0.3325
     20 N6         -0.5378   12.8726   -5.1318 N.pl3     1 <0>        -0.5654
     21 N7         -0.4071   14.1054   -4.4791 N.2       1 <0>        -0.2656
     22 C13        -0.4702   15.1943   -5.1492 C.2       1 <0>         0.1266
     23 C14        -0.8192   15.1659   -6.6341 C.3       1 <0>        -0.1224
     24 C15        -1.7249   16.3170   -6.9959 C.3       1 <0>        -0.1114
     25 C16        -0.8810   17.5350   -7.3966 C.3       1 <0>        -0.1213
     26 C17        -0.3742   18.2766   -6.2388 C.3       1 <0>        -0.1249
     27 C18         0.5888   17.4461   -5.3792 C.3       1 <0>        -0.1208
     28 C19        -0.1909   16.5326   -4.4723 C.3       1 <0>        -0.0598
     29 C20        -4.0789    1.4104   -0.5581 C.3       1 <0>        -0.1775
     30 H1         -2.9383    1.5776   -3.0160 H         1 <0>         0.1054
     31 H2         -2.5056    0.0236   -2.2257 H         1 <0>         0.0824
     32 H3         -1.2430    1.2696   -2.5085 H         1 <0>         0.0813
     33 H4         -2.9332    3.6034   -1.8805 H         1 <0>         0.1131
     34 H5         -2.9377    3.6964   -0.0866 H         1 <0>         0.0912
     35 H6         -0.4698    3.2419   -1.8712 H         1 <0>         0.1076
     36 H7          0.7330    3.4138    0.3240 H         1 <0>         0.1146
     37 H8         -0.8415    3.5501    1.1777 H         1 <0>         0.0958
     38 H9         -2.2654    1.2505    1.1271 H         1 <0>         0.4430
     39 H10        -0.0416    0.0598    1.8583 H         1 <0>         0.0852
     40 H11        -0.6429    1.6134    2.5303 H         1 <0>         0.0827
     41 H12         1.0539    1.4801    1.9559 H         1 <0>         0.1072
     42 H13         0.4782   -0.1235   -0.5866 H         1 <0>         0.0841
     43 H14         1.5790    1.2812   -0.3825 H         1 <0>         0.1047
     44 H15         0.3059    1.3144   -1.6494 H         1 <0>         0.0829
     45 H16        -0.7728    5.6684   -0.0851 H         1 <0>         0.4310
     46 H17        -1.6200    7.6878   -1.6866 H         1 <0>         0.1251
     47 H18         0.1681    7.5542   -1.7937 H         1 <0>         0.1257
     48 H19        -0.6064   12.8357   -6.2290 H         1 <0>         0.4362
     49 H20         0.1030   15.2409   -7.2290 H         1 <0>         0.0946
     50 H21        -1.3333   14.2230   -6.8720 H         1 <0>         0.0719
     51 H22        -2.3682   16.0263   -7.8395 H         1 <0>         0.0730
     52 H23        -2.3513   16.5770   -6.1298 H         1 <0>         0.0700
     53 H24        -0.0159   17.2027   -7.9892 H         1 <0>         0.0641
     54 H25        -1.4935   18.2241   -7.9966 H         1 <0>         0.0673
     55 H26         0.1670   19.1699   -6.5839 H         1 <0>         0.0671
     56 H27        -1.2171   18.5820   -5.6014 H         1 <0>         0.0646
     57 H28         1.2358   16.8424   -6.0326 H         1 <0>         0.0680
     58 H29         1.2093   18.1192   -4.7693 H         1 <0>         0.0773
     59 H30        -1.1433   17.0199   -4.2165 H         1 <0>         0.0927
     60 H31         0.3931   16.3649   -3.5553 H         1 <0>         0.0848
     61 H32        -4.3354    1.8361    0.4232 H         1 <0>         0.0799
     62 H33        -4.2302    0.3211   -0.5361 H         1 <0>         0.0833
     63 H34        -4.7240    1.8546   -1.3305 H         1 <0>         0.1054
     64 H35        -0.4021   12.5130   -2.4772 H         1 <0>         0.4762
     65 H36        -1.6529    0.0474   -0.0578 H         1 <0>         0.4463
@<TRIPOS>BOND
     1    1    2 1
     2    1   30 1
     3    1   31 1
     4    1   32 1
     5    2    7 1
     6    2    3 1
     7    2   29 1
     8    3    4 1
     9    3   33 1
    10    3   34 1
    11    4    5 1
    12    4   10 1
    13    4   35 1
    14    5    6 1
    15    5   36 1
    16    5   37 1
    17    6    7 1
    18    6    8 1
    19    6    9 1
    20    7   38 1
    21    7   65 1
    22    8   39 1
    23    8   40 1
    24    8   41 1
    25    9   42 1
    26    9   43 1
    27    9   44 1
    28   10   11 am
    29   10   45 1
    30   11   12 2
    31   11   13 1
    32   13   14 1
    33   13   46 1
    34   13   47 1
    35   14   15 1
    36   15   19 2
    37   15   16 1
    38   16   17 2
    39   17   18 1
    40   17   20 1
    41   18   19 1
    42   18   64 1
    43   20   21 1
    44   20   48 1
    45   21   22 2
    46   22   28 1
    47   22   23 1
    48   23   24 1
    49   23   49 1
    50   23   50 1
    51   24   25 1
    52   24   51 1
    53   24   52 1
    54   25   26 1
    55   25   53 1
    56   25   54 1
    57   26   27 1
    58   26   55 1
    59   26   56 1
    60   27   28 1
    61   27   57 1
    62   27   58 1
    63   28   59 1
    64   28   60 1
    65   29   61 1
    66   29   62 1
    67   29   63 1
@<TRIPOS>MOLECULE
ZINC35385286
   61    62     0     0     0
SMALL
USER_CHARGES

@<TRIPOS>ATOM
      1 C1         -1.4583   -0.5336   -0.7383 C.3       1 <0>        -0.1554
      2 C2          0.0333   -0.2747   -0.5171 C.3       1 <0>        -0.1012
      3 C3          0.4967   -1.0076    0.7435 C.3       1 <0>        -0.1676
      4 C4          0.8239   -0.7852   -1.7235 C.3       1 <0>        -0.1466
      5 C5          2.3004   -0.4202   -1.5571 C.3       1 <0>         0.1493
      6 H1          2.6627   -0.7987   -0.6013 H         1 <0>         0.1841
      7 C6          3.0993   -1.0362   -2.6767 C.2       1 <0>         0.1178
      8 N1          3.8674   -2.0784   -2.5678 N.2       1 <0>        -0.3978
      9 C7          4.4191   -2.3367   -3.7845 C.2       1 <0>        -0.0625
     10 C8          3.9467   -1.3950   -4.6461 C.2       1 <0>         0.0673
     11 O1          3.1251   -0.5988   -3.9436 O.3       1 <0>        -0.1953
     12 C9          5.3530   -3.4303   -4.1084 C.2       1 <0>         0.6015
     13 O2          5.7762   -3.5528   -5.2419 O.2       1 <0>        -0.5047
     14 N2          5.7378   -4.2945   -3.1484 N.am      1 <0>        -0.6922
     15 C10         6.6659   -5.3813   -3.4703 C.3       1 <0>         0.1286
     16 H2          6.4708   -5.7380   -4.4816 H         1 <0>         0.1316
     17 C11         8.1041   -4.8676   -3.3792 C.3       1 <0>        -0.1276
     18 C12         8.3355   -3.8055   -4.4559 C.3       1 <0>        -0.0893
     19 C13         9.7316   -3.2029   -4.2863 C.3       1 <0>        -0.1509
     20 C14         8.2224   -4.4488   -5.8395 C.3       1 <0>        -0.1464
     21 C15         6.4735   -6.5121   -2.4929 C.2       1 <0>         0.5162
     22 O3          5.6429   -6.4193   -1.6139 O.2       1 <0>        -0.5044
     23 N3          7.2245   -7.6266   -2.5955 N.am      1 <0>        -0.6659
     24 C16         6.9736   -8.7189   -1.7577 C.ar      1 <0>         0.1964
     25 C17         8.0214   -9.5254   -1.3333 C.ar      1 <0>        -0.1419
     26 C18         7.7705  -10.6028   -0.5064 C.ar      1 <0>        -0.0297
     27 C19         6.4775  -10.8788   -0.1011 C.ar      1 <0>        -0.0629
     28 C20         5.4319  -10.0778   -0.5222 C.ar      1 <0>        -0.0317
     29 C21         5.6770   -8.9953   -1.3442 C.ar      1 <0>        -0.1236
     30 N4          6.2122  -12.0342    0.7852 N.pl3     1 <0>         0.0329
     31 O4          7.1253  -12.7356    1.1538 O.2       1 <0>        -0.1538
     32 O5          5.0822  -12.2767    1.1403 O.3       1 <0>        -0.1564
     33 N5          2.4509    1.0406   -1.5943 N.4       1 <0>        -0.6373
     34 H3         -1.8079    0.0570   -1.5851 H         1 <0>         0.0631
     35 H4         -1.6169   -1.5923   -0.9435 H         1 <0>         0.0673
     36 H5         -2.0129   -0.2499    0.1562 H         1 <0>         0.0719
     37 H6          0.2027    0.7954   -0.3982 H         1 <0>         0.0681
     38 H7          0.3273   -2.0778    0.6245 H         1 <0>         0.0729
     39 H8          1.5594   -0.8232    0.9010 H         1 <0>         0.0537
     40 H9         -0.0665   -0.6440    1.6029 H         1 <0>         0.0750
     41 H10         0.7228   -1.8683   -1.7922 H         1 <0>         0.1233
     42 H11         0.4362   -0.3257   -2.6327 H         1 <0>         0.1006
     43 H12         4.1844   -1.3073   -5.6959 H         1 <0>         0.2494
     44 H13         5.4002   -4.1967   -2.2443 H         1 <0>         0.4189
     45 H14         8.2720   -4.4299   -2.3951 H         1 <0>         0.0768
     46 H15         8.7961   -5.6959   -3.5312 H         1 <0>         0.0834
     47 H16         7.5863   -3.0198   -4.3582 H         1 <0>         0.0723
     48 H17        10.4807   -3.9886   -4.3840 H         1 <0>         0.0578
     49 H18         9.8964   -2.4463   -5.0534 H         1 <0>         0.0583
     50 H19         9.8122   -2.7446   -3.3006 H         1 <0>         0.0513
     51 H20         8.9715   -5.2345   -5.9372 H         1 <0>         0.0488
     52 H21         7.2278   -4.8781   -5.9603 H         1 <0>         0.0695
     53 H22         8.3872   -3.6922   -6.6066 H         1 <0>         0.0555
     54 H23         7.9388   -7.6715   -3.2502 H         1 <0>         0.4223
     55 H24         9.0314   -9.3106   -1.6499 H         1 <0>         0.1534
     56 H25         8.5849  -11.2306   -0.1764 H         1 <0>         0.1615
     57 H26         4.4232  -10.2962   -0.2042 H         1 <0>         0.1587
     58 H27         4.8606   -8.3671   -1.6686 H         1 <0>         0.1557
     59 H28         2.1680    1.3849   -2.4995 H         1 <0>         0.4405
     60 H29         1.8720    1.4566   -0.8802 H         1 <0>         0.4460
     61 H30         3.4161    1.2835   -1.4286 H         1 <0>         0.4430
@<TRIPOS>BOND
     1    1    2 1
     2    1   34 1
     3    1   35 1
     4    1   36 1
     5    2    3 1
     6    2    4 1
     7    2   37 1
     8    3   38 1
     9    3   39 1
    10    3   40 1
    11    4    5 1
    12    4   41 1
    13    4   42 1
    14    5    6 1
    15    5    7 1
    16    5   33 1
    17    7   11 1
    18    7    8 2
    19    8    9 1
    20    9   10 2
    21    9   12 1
    22   10   11 1
    23   10   43 1
    24   12   13 2
    25   12   14 am
    26   14   15 1
    27   14   44 1
    28   15   16 1
    29   15   17 1
    30   15   21 1
    31   17   18 1
    32   17   45 1
    33   17   46 1
    34   18   19 1
    35   18   20 1
    36   18   47 1
    37   19   48 1
    38   19   49 1
    39   19   50 1
    40   20   51 1
    41   20   52 1
    42   20   53 1
    43   21   22 2
    44   21   23 am
    45   23   24 1
    46   23   54 1
    47   24   29 ar
    48   24   25 ar
    49   25   26 ar
    50   25   55 1
    51   26   27 ar
    52   26   56 1
    53   27   28 ar
    54   27   30 1
    55   28   29 ar
    56   28   57 1
    57   29   58 1
    58   30   31 2
    59   30   32 1
    60   33   59 1
    61   33   60 1
    62   33   61 1
@<TRIPOS>MOLECULE
ZINC44830559
   62    63     0     0     0
SMALL
USER_CHARGES

@<TRIPOS>ATOM
      1 C1         -0.0187    1.5258    0.0104 C.3       1 <0>        -0.1589
      2 C2          0.0021   -0.0041    0.0020 C.3       1 <0>        -0.1245
      3 C3         -1.4333   -0.5336    0.0129 C.3       1 <0>        -0.1202
      4 C4         -1.4126   -2.0635    0.0045 C.3       1 <0>        -0.1066
      5 H1         -0.8029   -2.4375    0.8270 H         1 <0>         0.1161
      6 C5         -0.8701   -2.5853   -1.3459 C.3       1 <0>        -0.1259
      7 C6         -1.7693   -3.8150   -1.6285 C.3       1 <0>         0.0061
      8 H2         -1.4182   -4.6843   -1.0724 H         1 <0>         0.1641
      9 N1         -3.1022   -3.3816   -1.1369 N.4       1 <0>        -0.3789
     10 C7         -2.8456   -2.6180    0.1061 C.3       1 <0>        -0.0069
     11 C8         -3.9405   -4.5525   -0.8468 C.3       1 <0>        -0.0442
     12 C9         -1.8141   -4.1130   -3.1051 C.2       1 <0>         0.5069
     13 O1         -2.8691   -4.0659   -3.7015 O.2       1 <0>        -0.5317
     14 N2         -0.6819   -4.4319   -3.7629 N.am      1 <0>        -0.6620
     15 C10        -0.7254   -4.7216   -5.1983 C.3       1 <0>         0.1319
     16 H3         -1.4752   -4.0894   -5.6739 H         1 <0>         0.1129
     17 C11         0.6454   -4.4407   -5.8171 C.3       1 <0>         0.0839
     18 H4          0.5898   -4.5706   -6.8979 H         1 <0>         0.0993
     19 C12         1.0655   -3.0039   -5.4965 C.3       1 <0>         0.1005
     20 H5          0.3567   -2.3083   -5.9456 H         1 <0>         0.0761
     21 C13         2.4640   -2.7497   -6.0675 C.3       1 <0>         0.0801
     22 H6          2.7925   -1.7468   -5.7946 H         1 <0>         0.0805
     23 C14         3.4355   -3.7825   -5.4881 C.3       1 <0>         0.0729
     24 H7          4.4217   -3.6437   -5.9313 H         1 <0>         0.0767
     25 C15         2.9238   -5.1892   -5.8090 C.3       1 <0>         0.0862
     26 H8          2.8983   -5.3290   -6.8897 H         1 <0>         0.0902
     27 O2          1.6073   -5.3490   -5.2768 O.3       1 <0>        -0.3502
     28 S1          4.0304   -6.4197   -5.0660 S.3       1 <0>        -0.2055
     29 C16         3.4777   -7.9938   -5.7781 C.3       1 <0>        -0.1216
     30 O3          3.5209   -3.6158   -4.0714 O.3       1 <0>        -0.5321
     31 O4          2.4283   -2.8703   -7.4909 O.3       1 <0>        -0.5524
     32 O5          1.0856   -2.8171   -4.0799 O.3       1 <0>        -0.5339
     33 C17        -1.0893   -6.1924   -5.4109 C.3       1 <0>         0.0956
     34 H9         -0.3395   -6.8246   -4.9353 H         1 <0>         0.0678
     35 C18        -2.4601   -6.4733   -4.7921 C.3       1 <0>        -0.1390
     36 O6         -1.1318   -6.4750   -6.8110 O.3       1 <0>        -0.5534
     37 H10         1.0039    1.9031    0.0027 H         1 <0>         0.0609
     38 H11        -0.5459    1.8868   -0.8726 H         1 <0>         0.0551
     39 H12        -0.5289    1.8773    0.9072 H         1 <0>         0.0574
     40 H13         0.5123   -0.3556   -0.8948 H         1 <0>         0.0658
     41 H14         0.5293   -0.3651    0.8851 H         1 <0>         0.0681
     42 H15        -1.9435   -0.1821    0.9097 H         1 <0>         0.0795
     43 H16        -1.9605   -0.1726   -0.8702 H         1 <0>         0.0707
     44 H17        -0.9889   -1.8332   -2.1258 H         1 <0>         0.1047
     45 H18         0.1739   -2.8842   -1.2526 H         1 <0>         0.1275
     46 H19        -2.9287   -3.2757    0.9714 H         1 <0>         0.1359
     47 H20        -3.5566   -1.7962    0.1913 H         1 <0>         0.1363
     48 H21        -3.4596   -5.1633   -0.0829 H         1 <0>         0.1211
     49 H22        -4.9149   -4.2217   -0.4873 H         1 <0>         0.1267
     50 H23        -4.0691   -5.1413   -1.7551 H         1 <0>         0.1260
     51 H24         0.1619   -4.4696   -3.2859 H         1 <0>         0.4254
     52 H25         2.4346   -8.1663   -5.5128 H         1 <0>         0.0849
     53 H26         3.5751   -7.9559   -6.8630 H         1 <0>         0.0823
     54 H27         4.0911   -8.8052   -5.3863 H         1 <0>         0.1100
     55 H28         4.1202   -4.2384   -3.6375 H         1 <0>         0.3849
     56 H29         3.2821   -2.7214   -7.9198 H         1 <0>         0.3934
     57 H30         1.3439   -1.9270   -3.8042 H         1 <0>         0.3798
     58 H31        -3.2099   -5.8411   -5.2677 H         1 <0>         0.0732
     59 H32        -2.7193   -7.5212   -4.9436 H         1 <0>         0.0633
     60 H33        -2.4276   -6.2578   -3.7241 H         1 <0>         0.0573
     61 H34        -0.2947   -6.3190   -7.2694 H         1 <0>         0.3769
     62 H35        -3.5508   -2.7920   -1.8220 H         1 <0>         0.4330
@<TRIPOS>BOND
     1    1    2 1
     2    1   37 1
     3    1   38 1
     4    1   39 1
     5    2    3 1
     6    2   40 1
     7    2   41 1
     8    3    4 1
     9    3   42 1
    10    3   43 1
    11    4    5 1
    12    4   10 1
    13    4    6 1
    14    6    7 1
    15    6   44 1
    16    6   45 1
    17    7    8 1
    18    7    9 1
    19    7   12 1
    20    9   10 1
    21    9   11 1
    22    9   62 1
    23   10   46 1
    24   10   47 1
    25   11   48 1
    26   11   49 1
    27   11   50 1
    28   12   13 2
    29   12   14 am
    30   14   15 1
    31   14   51 1
    32   15   16 1
    33   15   17 1
    34   15   33 1
    35   17   18 1
    36   17   27 1
    37   17   19 1
    38   19   20 1
    39   19   21 1
    40   19   32 1
    41   21   22 1
    42   21   23 1
    43   21   31 1
    44   23   24 1
    45   23   25 1
    46   23   30 1
    47   25   26 1
    48   25   27 1
    49   25   28 1
    50   28   29 1
    51   29   52 1
    52   29   53 1
    53   29   54 1
    54   30   55 1
    55   31   56 1
    56   32   57 1
    57   33   34 1
    58   33   35 1
    59   33   36 1
    60   35   58 1
    61   35   59 1
    62   35   60 1
    63   36   61 1
@<TRIPOS>MOLECULE
ZINC63818639
   57    60     0     0     0
SMALL
USER_CHARGES

@<TRIPOS>ATOM
      1 C1          0.0187    1.4180   -0.0535 C.3       1 <0>         0.0146
      2 O1          0.0337   -0.0109   -0.0552 O.3       1 <0>        -0.3014
      3 C2          0.6301   -0.6205   -1.1135 C.ar      1 <0>         0.1041
      4 C3          1.1939    0.1755   -2.1259 C.ar      1 <0>        -0.0253
      5 C4          1.8040   -0.3507   -3.2094 C.ar      1 <0>        -0.1572
      6 C5          1.8952   -1.8067   -3.3579 C.ar      1 <0>         0.3147
      7 N1          2.4212   -2.5608   -4.2905 N.pl3     1 <0>        -0.5702
      8 C6          2.2219   -3.9672   -3.9224 C.3       1 <0>         0.0605
      9 C7          1.4828   -3.9499   -2.6030 C.2       1 <0>         0.0554
     10 C8          1.3020   -2.6466   -2.2915 C.ar      1 <0>        -0.1268
     11 C9          0.6659   -1.9741   -1.1536 C.ar      1 <0>        -0.0944
     12 C10         1.0383   -5.1438   -1.7980 C.3       1 <0>        -0.1016
     13 C11        -0.3166   -5.6316   -2.3149 C.3       1 <0>         0.1239
     14 N2         -0.7488   -6.7922   -1.5323 N.am      1 <0>        -0.7085
     15 C12        -1.9221   -7.3938   -1.8110 C.2       1 <0>         0.5460
     16 O2         -2.6203   -6.9744   -2.7097 O.2       1 <0>        -0.5248
     17 C13        -2.3667   -8.5877   -1.0060 C.3       1 <0>         0.1960
     18 H1         -3.4051   -8.8307   -1.2310 H         1 <0>         0.0933
     19 N3         -1.4903   -9.7549   -1.2849 N.3       1 <0>        -0.6570
     20 C14        -1.6569  -10.5867   -0.0629 C.3       1 <0>         0.2100
     21 H2         -2.5669  -11.1833   -0.1262 H         1 <0>         0.0670
     22 N4         -1.7630   -9.5879    1.0265 N.3       1 <0>        -0.4606
     23 O3         -2.2058   -8.3311    0.4012 O.3       1 <0>        -0.2178
     24 C15        -0.4379  -11.4877    0.1453 C.3       1 <0>        -0.1112
     25 C16        -0.6848  -12.4043    1.3157 C.2       1 <0>         0.5175
     26 O4         -1.7325  -12.3430    1.9236 O.2       1 <0>        -0.5232
     27 N5          0.2588  -13.2922    1.6871 N.am      1 <0>        -0.6689
     28 C17         0.0707  -14.0756    2.8311 C.ar      1 <0>         0.1350
     29 C18         1.1542  -14.4045    3.6350 C.ar      1 <0>        -0.1423
     30 C19         0.9653  -15.1780    4.7636 C.ar      1 <0>        -0.1014
     31 C20        -0.3011  -15.6247    5.0933 C.ar      1 <0>        -0.1293
     32 C21        -1.3821  -15.2993    4.2946 C.ar      1 <0>        -0.1025
     33 C22        -1.2007  -14.5211    3.1681 C.ar      1 <0>        -0.1193
     34 H3          1.0423    1.7922   -0.0682 H         1 <0>         0.0645
     35 H4         -0.5120    1.7769   -0.9354 H         1 <0>         0.0646
     36 H5         -0.4858    1.7751    0.8444 H         1 <0>         0.1172
     37 H6          1.1363    1.2500   -2.0337 H         1 <0>         0.1676
     38 H7          2.2231    0.2984   -3.9641 H         1 <0>         0.1698
     39 H8          1.6247   -4.4731   -4.6810 H         1 <0>         0.1777
     40 H9          3.1845   -4.4654   -3.8073 H         1 <0>         0.1782
     41 H10         0.2262   -2.5538   -0.3555 H         1 <0>         0.1654
     42 H11         1.7736   -5.9424   -1.8962 H         1 <0>         0.1191
     43 H12         0.9467   -4.8612   -0.7492 H         1 <0>         0.1179
     44 H13        -1.0519   -4.8330   -2.2167 H         1 <0>         0.0801
     45 H14        -0.2250   -5.9142   -3.3636 H         1 <0>         0.0786
     46 H15        -0.1904   -7.1277   -0.8136 H         1 <0>         0.4166
     47 H16        -1.8009  -10.2523   -2.1060 H         1 <0>         0.3696
     48 H17        -2.4186   -9.8900    1.7315 H         1 <0>         0.3708
     49 H18        -0.2680  -12.0823   -0.7523 H         1 <0>         0.1139
     50 H19         0.4392  -10.8720    0.3447 H         1 <0>         0.1208
     51 H20         1.0682  -13.3881    1.1612 H         1 <0>         0.4129
     52 H21         2.1436  -14.0562    3.3779 H         1 <0>         0.1255
     53 H22         1.8076  -15.4344    5.3890 H         1 <0>         0.1281
     54 H23        -0.4463  -16.2294    5.9763 H         1 <0>         0.1255
     55 H24        -2.3699  -15.6501    4.5546 H         1 <0>         0.1269
     56 H25        -2.0461  -14.2630    2.5476 H         1 <0>         0.1372
     57 H26         2.8674   -2.2429   -5.0910 H         1 <0>         0.4572
@<TRIPOS>BOND
     1    1    2 1
     2    1   34 1
     3    1   35 1
     4    1   36 1
     5    2    3 1
     6    3   11 ar
     7    3    4 ar
     8    4    5 ar
     9    4   37 1
    10    5    6 ar
    11    5   38 1
    12    6   10 ar
    13    6    7 2
    14    7    8 1
    15    7   57 1
    16    8    9 1
    17    8   39 1
    18    8   40 1
    19    9   10 2
    20    9   12 1
    21   10   11 ar
    22   11   41 1
    23   12   13 1
    24   12   42 1
    25   12   43 1
    26   13   14 1
    27   13   44 1
    28   13   45 1
    29   14   15 am
    30   14   46 1
    31   15   16 2
    32   15   17 1
    33   17   18 1
    34   17   23 1
    35   17   19 1
    36   19   20 1
    37   19   47 1
    38   20   21 1
    39   20   22 1
    40   20   24 1
    41   22   23 1
    42   22   48 1
    43   24   25 1
    44   24   49 1
    45   24   50 1
    46   25   26 2
    47   25   27 am
    48   27   28 1
    49   27   51 1
    50   28   33 ar
    51   28   29 ar
    52   29   30 ar
    53   29   52 1
    54   30   31 ar
    55   30   53 1
    56   31   32 ar
    57   31   54 1
    58   32   33 ar
    59   32   55 1
    60   33   56 1
@<TRIPOS>MOLECULE
ZINC07499706
   58    59     0     0     0
SMALL
USER_CHARGES
N-(6-amino-1-butyl-2,4-dioxo-pyrimidin-5-yl)-2-[1-(2-chlorophenyl)ethylamino]-N-ethyl-acetamide
@<TRIPOS>ATOM
      1 C1          9.3622   -3.6447   -1.2803 C.3       1 <0>        -0.1544
      2 C2         10.0618   -2.2943   -1.1136 C.3       1 <0>        -0.1213
      3 C3          9.3561   -1.2446   -1.9745 C.3       1 <0>        -0.1398
      4 C4         10.0556    0.1058   -1.8077 C.3       1 <0>         0.0997
      5 N1          9.3799    1.1109   -2.6320 N.am      1 <0>        -0.5353
      6 C5          8.3411    1.8420   -2.1041 C.2       1 <0>         0.5173
      7 C6          7.7128    2.7852   -2.8913 C.2       1 <0>        -0.1782
      8 C7          8.1527    2.9665   -4.2160 C.2       1 <0>         0.5737
      9 O1          7.6122    3.7899   -4.9349 O.2       1 <0>        -0.5206
     10 N2          9.1783    2.2278   -4.6827 N.am      1 <0>        -0.6609
     11 H1          9.4967    2.3613   -5.6212 H         1 <0>         0.4458
     12 C8          9.7787    1.3130   -3.9009 C.2       1 <0>         0.7096
     13 O2         10.6992    0.6568   -4.3489 O.2       1 <0>        -0.5153
     14 N3          6.6441    3.5507   -2.3789 N.am      1 <0>        -0.4855
     15 C9          6.7761    5.0048   -2.2588 C.3       1 <0>         0.0913
     16 C10         7.4039    5.3499   -0.9069 C.3       1 <0>        -0.1760
     17 C11         5.5003    2.9434   -1.9996 C.2       1 <0>         0.4855
     18 O3          5.3590    1.7514   -2.1760 O.2       1 <0>        -0.5171
     19 C12         4.3985    3.7459   -1.3569 C.3       1 <0>        -0.0290
     20 C13         2.1741    3.6106   -0.4101 C.3       1 <0>         0.0797
     21 H2          2.1226    4.6101   -0.8420 H         1 <0>         0.1513
     22 C14         2.4281    3.7178    1.0948 C.3       1 <0>        -0.1783
     23 C15         0.8712    2.8921   -0.6498 C.ar      1 <0>        -0.1337
     24 C16         0.8662    1.5302   -0.8862 C.ar      1 <0>        -0.1184
     25 C17        -0.3287    0.8711   -1.1064 C.ar      1 <0>        -0.0940
     26 C18        -1.5189    1.5745   -1.0961 C.ar      1 <0>        -0.0796
     27 C19        -1.5157    2.9351   -0.8542 C.ar      1 <0>        -0.0926
     28 C20        -0.3198    3.5955   -0.6336 C.ar      1 <0>        -0.0143
     29 Cl1        -0.3143    5.3058   -0.3362 Cl        1 <0>        -0.0431
     30 N4          7.9341    1.6357   -0.8077 N.pl3     1 <0>        -0.8236
     31 H3          9.8650   -4.3925   -0.6671 H         1 <0>         0.0616
     32 H4          8.3223   -3.5565   -0.9660 H         1 <0>         0.0531
     33 H5          9.4011   -3.9473   -2.3268 H         1 <0>         0.0577
     34 H6         11.1017   -2.3825   -1.4280 H         1 <0>         0.0723
     35 H7         10.0230   -1.9917   -0.0671 H         1 <0>         0.0655
     36 H8          8.3161   -1.1564   -1.6601 H         1 <0>         0.0667
     37 H9          9.3949   -1.5471   -3.0209 H         1 <0>         0.0795
     38 H10        11.0955    0.0176   -2.1221 H         1 <0>         0.1185
     39 H11        10.0168    0.4084   -0.7612 H         1 <0>         0.0944
     40 H12         7.4119    5.3794   -3.0609 H         1 <0>         0.1062
     41 H13         5.7911    5.4662   -2.3303 H         1 <0>         0.0860
     42 H14         8.3889    4.8885   -0.8354 H         1 <0>         0.0675
     43 H15         7.5022    6.4318   -0.8175 H         1 <0>         0.0849
     44 H16         6.7681    4.9753   -0.1048 H         1 <0>         0.0523
     45 H17         4.0677    4.5246   -2.0442 H         1 <0>         0.1664
     46 H18         4.7699    4.2040   -0.4402 H         1 <0>         0.1637
     47 H19         2.4796    2.7183    1.5267 H         1 <0>         0.0880
     48 H20         3.3704    4.2375    1.2681 H         1 <0>         0.0879
     49 H21         1.6152    4.2739    1.5618 H         1 <0>         0.1117
     50 H22         1.7960    0.9809   -0.8985 H         1 <0>         0.1295
     51 H23        -0.3321   -0.1930   -1.2911 H         1 <0>         0.1442
     52 H24        -2.4518    1.0598   -1.2726 H         1 <0>         0.1475
     53 H25        -2.4459    3.4837   -0.8414 H         1 <0>         0.1494
     54 H26         7.2782    2.2264   -0.4055 H         1 <0>         0.4153
     55 H27         8.3028    0.8995   -0.2950 H         1 <0>         0.4146
     56 N5          3.2693    2.8506   -1.0415 N.4       1 <0>        -0.5050
     57 H28         3.5881    2.1174   -0.3973 H         1 <0>         0.4363
     58 H29         2.9266    2.4194   -1.9081 H         1 <0>         0.4415
@<TRIPOS>BOND
     1    1    2 1
     2    1   31 1
     3    1   32 1
     4    1   33 1
     5    2    3 1
     6    2   34 1
     7    2   35 1
     8    3    4 1
     9    3   36 1
    10    3   37 1
    11    4    5 1
    12    4   38 1
    13    4   39 1
    14    5   12 am
    15    5    6 1
    16    6    7 2
    17    6   30 1
    18    7    8 1
    19    7   14 1
    20    8    9 2
    21    8   10 am
    22   10   11 1
    23   10   12 am
    24   12   13 2
    25   14   15 1
    26   14   17 am
    27   15   16 1
    28   15   40 1
    29   15   41 1
    30   16   42 1
    31   16   43 1
    32   16   44 1
    33   17   18 2
    34   17   19 1
    35   19   45 1
    36   19   46 1
    37   19   56 1
    38   20   21 1
    39   20   22 1
    40   20   23 1
    41   20   56 1
    42   22   47 1
    43   22   48 1
    44   22   49 1
    45   23   28 ar
    46   23   24 ar
    47   24   25 ar
    48   24   50 1
    49   25   26 ar
    50   25   51 1
    51   26   27 ar
    52   26   52 1
    53   27   28 ar
    54   27   53 1
    55   28   29 1
    56   30   54 1
    57   30   55 1
    58   56   57 1
    59   56   58 1
@<TRIPOS>MOLECULE
ZINC08935280
   54    55     0     0     0
SMALL
USER_CHARGES
(E)-N-[[4-(carbamimidoylsulfamoyl)phenyl]carbamothioyl]-3-(4-isopropylphenyl)prop-2-enamide
@<TRIPOS>ATOM
      1 C1         -9.8151    6.7317   13.8401 C.3       1 <0>        -0.1459
      2 C2         -8.3532    7.1495   14.0111 C.3       1 <0>        -0.0639
      3 C3         -7.6929    6.2710   15.0755 C.3       1 <0>        -0.1458
      4 C4         -7.6268    6.9834   12.7012 C.ar      1 <0>        -0.0501
      5 C5         -7.0371    8.0801   12.0973 C.ar      1 <0>        -0.1216
      6 C6         -6.3710    7.9364   10.8985 C.ar      1 <0>        -0.0803
      7 C7         -6.2918    6.6781   10.2933 C.ar      1 <0>        -0.0999
      8 C8         -6.8945    5.5757   10.9076 C.ar      1 <0>        -0.0911
      9 C9         -7.5532    5.7349   12.1084 C.ar      1 <0>        -0.1202
     10 C10        -5.5832    6.5160    9.0136 C.2       1 <0>         0.0239
     11 C11        -5.5091    5.3008    8.4329 C.2       1 <0>        -0.2424
     12 C12        -4.8046    5.1397    7.1607 C.2       1 <0>         0.5247
     13 O1         -4.2857    6.1019    6.6265 O.2       1 <0>        -0.4074
     14 N1         -4.7304    3.9254    6.5805 N.am      1 <0>        -0.6308
     15 C13        -4.0815    3.7770    5.4086 C.2       1 <0>         0.5020
     16 S1         -3.3514    5.1309    4.6571 S.2       1 <0>        -0.4519
     17 N2         -4.0074    2.5628    4.8284 N.pl3     1 <0>        -0.6383
     18 C14        -3.2376    2.3850    3.6742 C.ar      1 <0>         0.2157
     19 C15        -1.9889    2.9843    3.5713 C.ar      1 <0>        -0.0866
     20 C16        -1.2311    2.8064    2.4305 C.ar      1 <0>         0.0058
     21 C17        -1.7141    2.0323    1.3916 C.ar      1 <0>        -0.6987
     22 C18        -2.9594    1.4389    1.4885 C.ar      1 <0>        -0.0349
     23 C19        -3.7200    1.6086    2.6287 C.ar      1 <0>        -0.1293
     24 S2         -0.7439    1.8074   -0.0620 S.o2      1 <0>         2.6549
     25 O2          0.1439    2.9146   -0.1330 O.2       1 <0>        -0.8778
     26 O3         -1.6496    1.4887   -1.1096 O.2       1 <0>        -0.9129
     27 N3          0.1936    0.4637    0.1781 N.pl3     1 <0>        -1.0345
     28 C20        -0.3962   -0.7711    0.3119 C.cat     1 <0>         0.7716
     29 N4          0.3822   -1.8867    0.5113 N.pl3     1 <0>        -0.7766
     30 H1         -9.8608    5.6880   13.5292 H         1 <0>         0.0570
     31 H2        -10.3406    6.8518   14.7875 H         1 <0>         0.0625
     32 H3        -10.2856    7.3576   13.0818 H         1 <0>         0.0572
     33 H4         -8.3076    8.1932   14.3220 H         1 <0>         0.0818
     34 H5         -6.6514    6.5686   15.1974 H         1 <0>         0.0571
     35 H6         -8.2183    6.3911   16.0229 H         1 <0>         0.0624
     36 H7         -7.7385    5.2273   14.7646 H         1 <0>         0.0569
     37 H8         -7.0991    9.0512   12.5659 H         1 <0>         0.1295
     38 H9         -5.9119    8.7932   10.4280 H         1 <0>         0.1314
     39 H10        -6.8415    4.6016   10.4441 H         1 <0>         0.1257
     40 H11        -8.0163    4.8839   12.5857 H         1 <0>         0.1271
     41 H12        -5.1226    7.3700    8.5394 H         1 <0>         0.1410
     42 H13        -5.9696    4.4467    8.9071 H         1 <0>         0.1343
     43 H14        -5.1441    3.1584    7.0064 H         1 <0>         0.4150
     44 H15        -4.4879    1.8121    5.2113 H         1 <0>         0.4154
     45 H16        -1.6107    3.5884    4.3828 H         1 <0>         0.1622
     46 H17        -0.2600    3.2721    2.3500 H         1 <0>         0.1581
     47 H18        -3.3357    0.8385    0.6734 H         1 <0>         0.1417
     48 H19        -4.6907    1.1411    2.7055 H         1 <0>         0.1495
     49 H20         1.1589    0.5477    0.2245 H         1 <0>         0.4627
     50 H21        -2.2025   -1.7118    0.3324 H         1 <0>         0.4637
     51 H22         1.3474   -1.8027    0.5577 H         1 <0>         0.4478
     52 H23        -0.0338   -2.7579    0.6056 H         1 <0>         0.4447
     53 N5         -1.7184   -0.8187    0.2392 N.pl3     1 <0>        -0.7894
     54 H24        -2.2557    0.0433    0.0890 H         1 <0>         0.4470
@<TRIPOS>BOND
     1    1    2 1
     2    1   30 1
     3    1   31 1
     4    1   32 1
     5    2    3 1
     6    2    4 1
     7    2   33 1
     8    3   34 1
     9    3   35 1
    10    3   36 1
    11    4    9 ar
    12    4    5 ar
    13    5    6 ar
    14    5   37 1
    15    6    7 ar
    16    6   38 1
    17    7    8 ar
    18    7   10 1
    19    8    9 ar
    20    8   39 1
    21    9   40 1
    22   10   11 2
    23   10   41 1
    24   11   12 1
    25   11   42 1
    26   12   13 2
    27   12   14 am
    28   14   15 1
    29   14   43 1
    30   15   16 2
    31   15   17 1
    32   17   18 1
    33   17   44 1
    34   18   23 ar
    35   18   19 ar
    36   19   20 ar
    37   19   45 1
    38   20   21 ar
    39   20   46 1
    40   21   22 ar
    41   21   24 1
    42   22   23 ar
    43   22   47 1
    44   23   48 1
    45   24   25 2
    46   24   26 2
    47   24   27 1
    48   27   28 1
    49   27   49 1
    50   28   29 1
    51   28   53 2
    52   29   51 1
    53   29   52 1
    54   50   53 1
    55   53   54 1
@<TRIPOS>MOLECULE
ZINC38964765
   57    61     0     0     0
SMALL
USER_CHARGES

@<TRIPOS>ATOM
      1 C1         -0.9735    0.9840    0.3706 C.3       1 <0>        -0.1201
      2 C2         -1.0076   -0.5127    0.1981 C.ar      1 <0>        -0.0941
      3 C3         -0.9020   -1.0591   -1.0792 C.ar      1 <0>        -0.0681
      4 C4         -0.9291   -2.4075   -1.2717 C.ar      1 <0>        -0.1033
      5 C5         -1.0656   -3.2622   -0.1679 C.ar      1 <0>         0.1862
      6 C6         -1.1731   -2.7047    1.1325 C.ar      1 <0>        -0.1802
      7 C7         -1.1358   -1.3120    1.2940 C.ar      1 <0>        -0.0649
      8 C8         -1.3087   -3.5800    2.2258 C.ar      1 <0>         0.2629
      9 N1         -1.3298   -4.8758    1.9934 N.ar      1 <0>        -0.5470
     10 C9         -1.2264   -5.3643    0.7595 C.ar      1 <0>         0.5477
     11 N2         -1.0974   -4.5936   -0.3021 N.ar      1 <0>        -0.4769
     12 N3         -1.2552   -6.7400    0.5837 N.pl3     1 <0>        -0.6043
     13 C10        -1.0276   -7.2781   -0.6583 C.2       1 <0>         0.6358
     14 N4         -0.7119   -6.4829   -1.6602 N.2       1 <0>        -0.5113
     15 C11        -0.4831   -6.9631   -2.8806 C.2       1 <0>         0.2096
     16 C12        -0.5735   -8.3040   -3.1164 C.2       1 <0>        -0.2930
     17 C13        -0.9100   -9.1599   -2.0521 C.2       1 <0>         0.5434
     18 N5         -1.1265   -8.6237   -0.8320 N.am      1 <0>        -0.6430
     19 O1         -1.0001  -10.3640   -2.2271 O.2       1 <0>        -0.5194
     20 C14        -0.1243   -6.0243   -4.0034 C.3       1 <0>        -0.0470
     21 S1          1.5969   -5.4838   -3.8130 S.3       1 <0>        -0.0999
     22 C15         1.8359   -4.2962   -5.1632 C.3       1 <0>         0.2757
     23 H1          2.8687   -3.9481   -5.1791 H         1 <0>         0.1774
     24 N6          0.9105   -3.1473   -5.0046 N.3       1 <0>        -0.4191
     25 N7          0.4921   -2.8757   -6.3911 N.4       1 <0>        -0.2928
     26 N8          0.4249   -4.2199   -6.9805 N.3       1 <0>        -0.2177
     27 N9          1.4885   -4.9162   -6.4530 N.pl3     1 <0>        -0.5001
     28 C16         2.1247   -6.0148   -7.0353 C.ar      1 <0>         0.1735
     29 C17         3.2722   -6.5421   -6.4566 C.ar      1 <0>        -0.1351
     30 C18         3.8986   -7.6287   -7.0348 C.ar      1 <0>        -0.0733
     31 C19         3.3849   -8.1916   -8.1887 C.ar      1 <0>        -0.1236
     32 C20         2.2427   -7.6692   -8.7674 C.ar      1 <0>        -0.0764
     33 C21         1.6082   -6.5863   -8.1913 C.ar      1 <0>        -0.1573
     34 C22        -1.4267   -3.0466    3.6303 C.3       1 <0>        -0.1176
     35 H2          0.0451    1.3007    0.5950 H         1 <0>         0.0763
     36 H3         -1.3088    1.4635   -0.5491 H         1 <0>         0.0694
     37 H4         -1.6320    1.2703    1.1906 H         1 <0>         0.0729
     38 H5         -0.7972   -0.4030   -1.9306 H         1 <0>         0.1318
     39 H6         -0.8464   -2.8158   -2.2681 H         1 <0>         0.1272
     40 H7         -1.2125   -0.8763    2.2792 H         1 <0>         0.1393
     41 H8         -0.3901   -8.7015   -4.1037 H         1 <0>         0.1573
     42 H9         -0.2402   -6.5381   -4.9577 H         1 <0>         0.1160
     43 H10        -0.7829   -5.1562   -3.9758 H         1 <0>         0.1042
     44 H11         0.1192   -3.3970   -4.4305 H         1 <0>         0.4001
     45 H12        -0.4136   -2.4315   -6.4104 H         1 <0>         0.4597
     46 H13         0.4851   -4.1769   -7.9868 H         1 <0>         0.3785
     47 H14         3.6743   -6.1025   -5.5558 H         1 <0>         0.1320
     48 H15         4.7907   -8.0391   -6.5854 H         1 <0>         0.1396
     49 H16         3.8770   -9.0408   -8.6392 H         1 <0>         0.1357
     50 H17         1.8442   -8.1112   -9.6687 H         1 <0>         0.1375
     51 H18         0.7137   -6.1816   -8.6413 H         1 <0>         0.1249
     52 H19        -2.4774   -2.8833    3.8699 H         1 <0>         0.0980
     53 H20        -1.0024   -3.7672    4.3295 H         1 <0>         0.0930
     54 H21        -0.8856   -2.1035    3.7075 H         1 <0>         0.0904
     55 H22        -1.4361   -7.3218    1.3386 H         1 <0>         0.4392
     56 H23         1.1792   -2.3108   -6.8674 H         1 <0>         0.4314
     57 H24        -1.3558   -9.1955   -0.0828 H         1 <0>         0.4194
@<TRIPOS>BOND
     1    1    2 1
     2    1   35 1
     3    1   36 1
     4    1   37 1
     5    2    7 ar
     6    2    3 ar
     7    3    4 ar
     8    3   38 1
     9    4    5 ar
    10    4   39 1
    11    5   11 ar
    12    5    6 ar
    13    6    7 ar
    14    6    8 ar
    15    7   40 1
    16    8    9 ar
    17    8   34 1
    18    9   10 ar
    19   10   11 ar
    20   10   12 1
    21   12   13 1
    22   12   55 1
    23   13   18 1
    24   13   14 2
    25   14   15 1
    26   15   16 2
    27   15   20 1
    28   16   17 1
    29   16   41 1
    30   17   18 am
    31   17   19 2
    32   18   57 1
    33   20   21 1
    34   20   42 1
    35   20   43 1
    36   21   22 1
    37   22   23 1
    38   22   27 1
    39   22   24 1
    40   24   25 1
    41   24   44 1
    42   25   26 1
    43   25   45 1
    44   25   56 1
    45   26   27 1
    46   26   46 1
    47   27   28 1
    48   28   33 ar
    49   28   29 ar
    50   29   30 ar
    51   29   47 1
    52   30   31 ar
    53   30   48 1
    54   31   32 ar
    55   31   49 1
    56   32   33 ar
    57   32   50 1
    58   33   51 1
    59   34   52 1
    60   34   53 1
    61   34   54 1
@<TRIPOS>MOLECULE
ZINC43698913
   60    64     0     0     0
SMALL
USER_CHARGES

@<TRIPOS>ATOM
      1 C1         -1.7569    0.6093    0.1818 C.3       1 <0>         0.0129
      2 N1         -1.7565   -0.8197    0.5047 N.pl3     1 <0>        -0.4535
      3 C2         -2.2728   -1.6739   -0.3536 C.2       1 <0>         0.4357
      4 C3         -2.2375   -3.0145    0.0192 C.2       1 <0>        -0.2819
      5 S1         -1.4406   -2.8925    1.6124 S.3       1 <0>         0.5177
      6 C4         -1.2339   -1.2230    1.6464 C.cat     1 <0>         0.2612
      7 N2         -0.6544   -0.4544    2.6389 N.pl3     1 <0>        -0.6118
      8 C5         -0.0271   -1.0639    3.7054 C.2       1 <0>         0.4165
      9 N3         -0.0742   -0.5143    4.8954 N.2       1 <0>        -0.4255
     10 C6         -0.7007    0.6892    5.0686 C.ar      1 <0>         0.0618
     11 C7         -0.3085    1.7991    4.3165 C.ar      1 <0>        -0.1731
     12 C8         -0.9448    3.0096    4.4964 C.ar      1 <0>        -0.0955
     13 C9         -1.9693    3.1261    5.4192 C.ar      1 <0>        -0.1138
     14 C10        -2.3627    2.0310    6.1680 C.ar      1 <0>        -0.0925
     15 C11        -1.7397    0.8128    5.9942 C.ar      1 <0>        -0.0987
     16 C12         0.6978   -2.3362    3.5074 C.ar      1 <0>        -0.0959
     17 C13         1.0826   -2.7317    2.2250 C.ar      1 <0>        -0.1133
     18 C14         1.7592   -3.9207    2.0472 C.ar      1 <0>        -0.1041
     19 C15         2.0561   -4.7209    3.1362 C.ar      1 <0>        -0.0748
     20 C16         1.6772   -4.3351    4.4099 C.ar      1 <0>        -0.1094
     21 C17         1.0061   -3.1454    4.6026 C.ar      1 <0>        -0.0437
     22 C18        -2.7215   -4.1989   -0.6975 C.ar      1 <0>         0.5325
     23 N4         -3.3846   -4.0601   -1.8493 N.ar      1 <0>        -0.6458
     24 C19        -3.8215   -5.1344   -2.4957 C.ar      1 <0>         0.6466
     25 N5         -3.6001   -6.3479   -1.9977 N.ar      1 <0>        -0.6332
     26 C20        -2.9405   -6.4895   -0.8515 C.ar      1 <0>         0.6446
     27 N6         -2.4957   -5.4193   -0.2031 N.ar      1 <0>        -0.6287
     28 N7         -2.7127   -7.7519   -0.3378 N.pl3     1 <0>        -0.6172
     29 C21        -3.0760   -8.8830   -1.0753 C.ar      1 <0>         0.1458
     30 C22        -2.9939   -8.8658   -2.4617 C.ar      1 <0>        -0.1097
     31 C23        -3.3536   -9.9846   -3.1872 C.ar      1 <0>        -0.1014
     32 C24        -3.7951  -11.1211   -2.5347 C.ar      1 <0>        -0.1268
     33 C25        -3.8781  -11.1415   -1.1545 C.ar      1 <0>        -0.0978
     34 C26        -3.5145  -10.0280   -0.4228 C.ar      1 <0>        -0.1392
     35 N8         -4.5066   -4.9919   -3.6857 N.pl3     1 <0>        -0.7969
     36 N9         -2.8229   -1.2603   -1.5642 N.pl3     1 <0>        -0.8007
     37 H1         -0.8414    0.8611   -0.3535 H         1 <0>         0.1186
     38 H2         -2.6190    0.8401   -0.4440 H         1 <0>         0.1194
     39 H3         -1.8107    1.1898    1.1028 H         1 <0>         0.1098
     40 H4          0.4912    1.7098    3.5961 H         1 <0>         0.1234
     41 H5         -0.6424    3.8687    3.9159 H         1 <0>         0.1343
     42 H6         -2.4640    4.0763    5.5559 H         1 <0>         0.1346
     43 H7         -3.1629    2.1292    6.8867 H         1 <0>         0.1382
     44 H8         -2.0512   -0.0424    6.5756 H         1 <0>         0.1368
     45 H9          0.8509   -2.1084    1.3740 H         1 <0>         0.1141
     46 H10         2.0574   -4.2278    1.0557 H         1 <0>         0.1397
     47 H11         2.5856   -5.6509    2.9915 H         1 <0>         0.1404
     48 H12         1.9114   -4.9647    5.2556 H         1 <0>         0.1436
     49 H13         0.7155   -2.8429    5.5978 H         1 <0>         0.1478
     50 H14        -2.3007   -7.8534    0.5345 H         1 <0>         0.4288
     51 H15        -2.6494   -7.9784   -2.9719 H         1 <0>         0.1321
     52 H16        -3.2903   -9.9717   -4.2652 H         1 <0>         0.1268
     53 H17        -4.0761  -11.9945   -3.1044 H         1 <0>         0.1265
     54 H18        -4.2234  -12.0307   -0.6480 H         1 <0>         0.1299
     55 H19        -3.5753  -10.0461    0.6553 H         1 <0>         0.1268
     56 H20        -4.6686   -4.1073   -4.0491 H         1 <0>         0.4200
     57 H21        -4.8260   -5.7764   -4.1584 H         1 <0>         0.4248
     58 H22        -2.8331   -0.3184   -1.7956 H         1 <0>         0.4114
     59 H23        -3.1960   -1.9141   -2.1760 H         1 <0>         0.4480
     60 H24        -0.6889    0.5135    2.5852 H         1 <0>         0.4338
@<TRIPOS>BOND
     1    1    2 1
     2    1   37 1
     3    1   38 1
     4    1   39 1
     5    2    6 2
     6    2    3 1
     7    3    4 2
     8    3   36 1
     9    4    5 1
    10    4   22 1
    11    5    6 1
    12    6    7 1
    13    7    8 1
    14    7   60 1
    15    8    9 2
    16    8   16 1
    17    9   10 1
    18   10   15 ar
    19   10   11 ar
    20   11   12 ar
    21   11   40 1
    22   12   13 ar
    23   12   41 1
    24   13   14 ar
    25   13   42 1
    26   14   15 ar
    27   14   43 1
    28   15   44 1
    29   16   21 ar
    30   16   17 ar
    31   17   18 ar
    32   17   45 1
    33   18   19 ar
    34   18   46 1
    35   19   20 ar
    36   19   47 1
    37   20   21 ar
    38   20   48 1
    39   21   49 1
    40   22   27 ar
    41   22   23 ar
    42   23   24 ar
    43   24   25 ar
    44   24   35 1
    45   25   26 ar
    46   26   27 ar
    47   26   28 1
    48   28   29 1
    49   28   50 1
    50   29   34 ar
    51   29   30 ar
    52   30   31 ar
    53   30   51 1
    54   31   32 ar
    55   31   52 1
    56   32   33 ar
    57   32   53 1
    58   33   34 ar
    59   33   54 1
    60   34   55 1
    61   35   56 1
    62   35   57 1
    63   36   58 1
    64   36   59 1
@<TRIPOS>MOLECULE
ZINC13303572
   57    59     0     0     0
SMALL
USER_CHARGES

@<TRIPOS>ATOM
      1 C1         -0.4576    1.9215   -3.5521 C.3       1 <0>        -0.1543
      2 C2         -0.4761    0.4271   -3.8800 C.3       1 <0>        -0.1212
      3 C3          0.5068   -0.3077   -2.9663 C.3       1 <0>        -0.1215
      4 C4          0.4883   -1.8020   -3.2941 C.3       1 <0>         0.0553
      5 O1          1.4064   -2.4883   -2.4408 O.3       1 <0>        -0.3063
      6 C5          1.5122   -3.8339   -2.6033 C.ar      1 <0>         0.1612
      7 C6          0.7518   -4.4778   -3.5685 C.ar      1 <0>        -0.1995
      8 C7          0.8593   -5.8444   -3.7342 C.ar      1 <0>        -0.0504
      9 C8          1.7284   -6.5740   -2.9348 C.ar      1 <0>         0.0427
     10 C9          2.4892   -5.9294   -1.9691 C.ar      1 <0>        -0.0501
     11 C10         2.3849   -4.5620   -1.8076 C.ar      1 <0>        -0.1393
     12 N1          1.8377   -7.9631   -3.1026 N.am      1 <0>        -0.5029
     13 C11         1.4252   -8.8391   -2.1781 C.2       1 <0>         0.5236
     14 O2          0.9210   -8.5517   -1.1137 O.2       1 <0>        -0.4241
     15 C12         1.6875  -10.2450   -2.6724 C.3       1 <0>        -0.1234
     16 C13         2.3299  -10.0272   -4.0575 C.3       1 <0>        -0.1707
     17 H1          3.3396  -10.4371   -4.0808 H         1 <0>         0.1736
     18 C14         2.3579   -8.5213   -4.2026 C.2       1 <0>         0.5311
     19 O3          2.7860   -7.9161   -5.1618 O.2       1 <0>        -0.4580
     20 S1          1.3099  -10.7734   -5.3588 S.3       1 <0>         0.1374
     21 C15         2.2632  -10.5563   -6.8247 C.cat     1 <0>         0.4978
     22 N2          3.4232   -9.9622   -6.7664 N.pl3     1 <0>        -0.7109
     23 N3          1.7838  -11.0136   -8.0316 N.pl3     1 <0>        -0.5135
     24 N4          2.5418  -10.8410   -9.1972 N.2       1 <0>        -0.3068
     25 C16         2.0899  -11.2721  -10.3348 C.2       1 <0>         0.2176
     26 C17         2.8876  -11.0904  -11.5614 C.ar      1 <0>        -0.0913
     27 C18         4.1327  -10.4596  -11.5001 C.ar      1 <0>        -0.0556
     28 C19         4.8774  -10.2912  -12.6485 C.ar      1 <0>        -0.1395
     29 C20         4.3934  -10.7467  -13.8661 C.ar      1 <0>         0.1296
     30 C21         3.1526  -11.3761  -13.9349 C.ar      1 <0>         0.0797
     31 C22         2.4028  -11.5538  -12.7871 C.ar      1 <0>        -0.0792
     32 O4          2.6810  -11.8206  -15.1306 O.3       1 <0>        -0.4808
     33 O5          5.1316  -10.5780  -14.9952 O.3       1 <0>        -0.4835
     34 H2         -0.7487    2.0689   -2.5120 H         1 <0>         0.0576
     35 H3          0.5468    2.3152   -3.7076 H         1 <0>         0.0572
     36 H4         -1.1579    2.4450   -4.2030 H         1 <0>         0.0596
     37 H5         -1.4806    0.0334   -3.7244 H         1 <0>         0.0655
     38 H6         -0.1851    0.2797   -4.9200 H         1 <0>         0.0648
     39 H7          1.5112    0.0860   -3.1218 H         1 <0>         0.0766
     40 H8          0.2158   -0.1603   -1.9262 H         1 <0>         0.0773
     41 H9         -0.5161   -2.1957   -3.1386 H         1 <0>         0.0670
     42 H10         0.7793   -1.9494   -4.3342 H         1 <0>         0.0660
     43 H11         0.0753   -3.9101   -4.1902 H         1 <0>         0.1411
     44 H12         0.2670   -6.3456   -4.4855 H         1 <0>         0.1285
     45 H13         3.1655   -6.4966   -1.3468 H         1 <0>         0.1367
     46 H14         2.9797   -4.0597   -1.0591 H         1 <0>         0.1469
     47 H15         2.3776  -10.7632   -2.0067 H         1 <0>         0.1611
     48 H16         0.7536  -10.7994   -2.7656 H         1 <0>         0.1436
     49 H17         3.9480   -9.8427   -7.5734 H         1 <0>         0.4433
     50 H18         0.9213  -11.4553   -8.0749 H         1 <0>         0.4258
     51 H19         1.1296  -11.7638  -10.3830 H         1 <0>         0.1461
     52 H20         4.5118  -10.1037  -10.5535 H         1 <0>         0.1391
     53 H21         5.8396   -9.8031  -12.5999 H         1 <0>         0.1463
     54 H22         1.4428  -12.0459  -12.8384 H         1 <0>         0.1475
     55 H23         2.9334  -12.7304  -15.3393 H         1 <0>         0.3961
     56 H24         5.7342  -11.3104  -15.1842 H         1 <0>         0.4008
     57 H25         3.7610   -9.6401   -5.9161 H         1 <0>         0.4387
@<TRIPOS>BOND
     1    1    2 1
     2    1   34 1
     3    1   35 1
     4    1   36 1
     5    2    3 1
     6    2   37 1
     7    2   38 1
     8    3    4 1
     9    3   39 1
    10    3   40 1
    11    4    5 1
    12    4   41 1
    13    4   42 1
    14    5    6 1
    15    6   11 ar
    16    6    7 ar
    17    7    8 ar
    18    7   43 1
    19    8    9 ar
    20    8   44 1
    21    9   10 ar
    22    9   12 1
    23   10   11 ar
    24   10   45 1
    25   11   46 1
    26   12   18 am
    27   12   13 am
    28   13   14 2
    29   13   15 1
    30   15   16 1
    31   15   47 1
    32   15   48 1
    33   16   17 1
    34   16   18 1
    35   16   20 1
    36   18   19 2
    37   20   21 1
    38   21   22 2
    39   21   23 1
    40   22   49 1
    41   22   57 1
    42   23   24 1
    43   23   50 1
    44   24   25 2
    45   25   26 1
    46   25   51 1
    47   26   31 ar
    48   26   27 ar
    49   27   28 ar
    50   27   52 1
    51   28   29 ar
    52   28   53 1
    53   29   30 ar
    54   29   33 1
    55   30   31 ar
    56   30   32 1
    57   31   54 1
    58   32   55 1
    59   33   56 1
@<TRIPOS>MOLECULE
ZINC31891012
   47    48     0     0     0
SMALL
USER_CHARGES
6-amino-1-butyl-5-[(4-methylpiperazin-1-yl)methyl]pyrimidine-2,4-dione
@<TRIPOS>ATOM
      1 C1          1.4167    2.0553   -0.0004 C.3       1 <0>        -0.1551
      2 C2         -0.0187    1.5258    0.0104 C.3       1 <0>        -0.1238
      3 C3          0.0021   -0.0041    0.0020 C.3       1 <0>        -0.1356
      4 C4         -1.4333   -0.5336    0.0129 C.3       1 <0>         0.0988
      5 N1         -1.4134   -1.9985    0.0048 N.am      1 <0>        -0.5441
      6 C5         -1.4212   -2.6750   -1.1908 C.2       1 <0>         0.5036
      7 C6         -1.3974   -4.0420   -1.1887 C.2       1 <0>        -0.3933
      8 C7         -1.3760   -4.7217    0.0392 C.2       1 <0>         0.5771
      9 O1         -1.3588   -5.9405    0.0654 O.2       1 <0>        -0.5254
     10 N2         -1.3743   -4.0188    1.1890 N.am      1 <0>        -0.6802
     11 H1         -1.3574   -4.5446    2.1550 H         1 <0>         0.4629
     12 C8         -1.3932   -2.6737    1.1687 C.2       1 <0>         0.7088
     13 O2         -1.3917   -2.0589    2.2177 O.2       1 <0>        -0.5297
     14 C9         -1.3997   -4.8083   -2.4864 C.3       1 <0>         0.1562
     15 N3         -0.0189   -5.1424   -2.8602 N.3       1 <0>        -0.5313
     16 C10         0.7495   -3.9300   -3.1752 C.3       1 <0>         0.0227
     17 C11         2.1992   -4.3132   -3.4814 C.3       1 <0>         0.0001
     18 N4          2.2263   -5.2577   -4.6070 N.4       1 <0>        -0.4007
     19 C12         1.4579   -6.4701   -4.2920 C.3       1 <0>        -0.0006
     20 C13         0.0081   -6.0869   -3.9858 C.3       1 <0>         0.0252
     21 C14         3.6070   -5.5918   -4.9808 C.3       1 <0>        -0.0454
     22 N5         -1.4479   -1.9853   -2.3758 N.pl3     1 <0>        -0.8669
     23 H2          1.4018    3.1552    0.0056 H         1 <0>         0.0620
     24 H3          1.9316    1.7005   -0.9054 H         1 <0>         0.0521
     25 H4          1.9486    1.6909    0.8908 H         1 <0>         0.0575
     26 H5         -0.5336    1.8806    0.9154 H         1 <0>         0.0725
     27 H6         -0.5507    1.8902   -0.8808 H         1 <0>         0.0661
     28 H7          0.5170   -0.3588   -0.9030 H         1 <0>         0.0636
     29 H8          0.5342   -0.3685    0.8931 H         1 <0>         0.0776
     30 H9         -1.9481   -0.1788    0.9180 H         1 <0>         0.1146
     31 H10        -1.9654   -0.1691   -0.8782 H         1 <0>         0.0921
     32 H11        -1.9808   -5.7343   -2.3644 H         1 <0>         0.1040
     33 H12        -1.8542   -4.1915   -3.2757 H         1 <0>         0.0404
     34 H13         0.3076   -3.4332   -4.0515 H         1 <0>         0.0536
     35 H14         0.7241   -3.2458   -2.3143 H         1 <0>         0.1191
     36 H15         2.7692   -3.4102   -3.7454 H         1 <0>         0.1332
     37 H16         2.6489   -4.7846   -2.5951 H         1 <0>         0.1345
     38 H17         1.4833   -7.1543   -5.1529 H         1 <0>         0.1362
     39 H18         1.8998   -6.9669   -3.4157 H         1 <0>         0.1356
     40 H19        -0.5626   -6.9892   -3.7210 H         1 <0>         0.1263
     41 H20        -0.4423   -5.6149   -4.8714 H         1 <0>         0.0588
     42 H21         3.5979   -6.2986   -5.8236 H         1 <0>         0.1250
     43 H22         4.1183   -6.0516   -4.1222 H         1 <0>         0.1199
     44 H23         4.1388   -4.6754   -5.2765 H         1 <0>         0.1235
     45 H24        -1.4540   -2.5320   -3.3303 H         1 <0>         0.4382
     46 H25        -1.4632   -0.8854   -2.3718 H         1 <0>         0.4318
     47 H26         1.7521   -4.7699   -5.4714 H         1 <0>         0.4385
@<TRIPOS>BOND
     1    1    2 1
     2    1   23 1
     3    1   24 1
     4    1   25 1
     5    2    3 1
     6    2   26 1
     7    2   27 1
     8    3    4 1
     9    3   28 1
    10    3   29 1
    11    4    5 1
    12    4   30 1
    13    4   31 1
    14    5   12 am
    15    5    6 1
    16    6    7 2
    17    6   22 1
    18    7    8 1
    19    7   14 1
    20    8    9 2
    21    8   10 am
    22   10   11 1
    23   10   12 am
    24   12   13 2
    25   14   15 1
    26   14   32 1
    27   14   33 1
    28   15   20 1
    29   15   16 1
    30   16   17 1
    31   16   34 1
    32   16   35 1
    33   17   18 1
    34   17   36 1
    35   17   37 1
    36   18   19 1
    37   18   21 1
    38   18   47 1
    39   19   20 1
    40   19   38 1
    41   19   39 1
    42   20   40 1
    43   20   41 1
    44   21   42 1
    45   21   43 1
    46   21   44 1
    47   22   45 1
    48   22   46 1
@<TRIPOS>MOLECULE
ZINC41119196
   41    42     0     0     0
SMALL
USER_CHARGES

@<TRIPOS>ATOM
      1 C1         -0.0178    1.4608    0.0101 C.3       1 <0>         0.0810
      2 N1          0.0021   -0.0041    0.0020 N.pl3     1 <0>        -1.0058
      3 C2          0.0241   -0.7433    1.2666 C.3       1 <0>         0.0883
      4 S1         -0.0004   -0.8243   -1.4366 S.o2      1 <0>         2.6941
      5 O1         -0.5312   -2.1147   -1.1675 O.2       1 <0>        -0.9526
      6 O2         -0.5723    0.0488   -2.4009 O.2       1 <0>        -0.9541
      7 C3          1.6818   -1.0594   -1.9051 C.ar      1 <0>        -0.6679
      8 C4          2.3218   -0.1076   -2.6771 C.ar      1 <0>        -0.0258
      9 C5          3.6417   -0.2860   -3.0482 C.ar      1 <0>        -0.1702
     10 C6          4.3276   -1.4219   -2.6456 C.ar      1 <0>         0.1871
     11 C7          3.6822   -2.3818   -1.8664 C.ar      1 <0>         0.1446
     12 C8          2.3597   -2.1925   -1.4948 C.ar      1 <0>        -0.0589
     13 N2          4.3689   -3.5313   -1.4570 N.pl3     1 <0>        -0.8809
     14 N3          5.6642   -1.6048   -3.0206 N.pl3     1 <0>        -0.7487
     15 C9          6.3400   -0.5954   -3.8395 C.3       1 <0>         0.1113
     16 C10         7.7810   -1.0355   -4.1052 C.3       1 <0>         0.0829
     17 N4          8.4568   -0.0260   -4.9240 N.pl3     1 <0>        -0.4087
     18 C11         8.4988    0.0153   -6.2916 C.2       1 <0>         0.0268
     19 C12         9.2196    1.1023   -6.6266 C.2       1 <0>         0.0077
     20 N5          9.6073    1.7082   -5.4945 N.pl3     1 <0>        -0.4739
     21 C13         9.1497    1.0408   -4.4707 C.cat     1 <0>         0.2922
     22 H1          1.0048    1.8381    0.0023 H         1 <0>         0.0544
     23 H2         -0.5450    1.8219   -0.8730 H         1 <0>         0.0846
     24 H3         -0.5280    1.8123    0.9069 H         1 <0>         0.0802
     25 H4          0.0224   -0.0395    2.0990 H         1 <0>         0.0835
     26 H5         -0.8567   -1.3823    1.3294 H         1 <0>         0.0708
     27 H6          0.9230   -1.3581    1.3125 H         1 <0>         0.0584
     28 H7          1.7890    0.7777   -2.9915 H         1 <0>         0.1399
     29 H8          4.1384    0.4592   -3.6519 H         1 <0>         0.1268
     30 H9          1.8581   -2.9319   -0.8881 H         1 <0>         0.1425
     31 H10         5.2949   -3.6609   -1.7152 H         1 <0>         0.3904
     32 H11         3.9186   -4.1980   -0.9151 H         1 <0>         0.4071
     33 H12         6.1427   -2.3999   -2.7382 H         1 <0>         0.4009
     34 H13         5.8133   -0.4844   -4.7874 H         1 <0>         0.0781
     35 H14         6.3428    0.3583   -3.3116 H         1 <0>         0.0756
     36 H15         8.3076   -1.1464   -3.1573 H         1 <0>         0.1282
     37 H16         7.7782   -1.9891   -4.6330 H         1 <0>         0.1311
     38 H17         8.0419   -0.6887   -6.9713 H         1 <0>         0.2246
     39 H18         9.4460    1.4290   -7.6309 H         1 <0>         0.2262
     40 H19         9.3022    1.2975   -3.4328 H         1 <0>         0.2613
     41 H20        10.1404    2.5170   -5.4447 H         1 <0>         0.4671
@<TRIPOS>BOND
     1    1    2 1
     2    1   22 1
     3    1   23 1
     4    1   24 1
     5    2    3 1
     6    2    4 1
     7    3   25 1
     8    3   26 1
     9    3   27 1
    10    4    5 2
    11    4    6 2
    12    4    7 1
    13    7   12 ar
    14    7    8 ar
    15    8    9 ar
    16    8   28 1
    17    9   10 ar
    18    9   29 1
    19   10   11 ar
    20   10   14 1
    21   11   12 ar
    22   11   13 1
    23   12   30 1
    24   13   31 1
    25   13   32 1
    26   14   15 1
    27   14   33 1
    28   15   16 1
    29   15   34 1
    30   15   35 1
    31   16   17 1
    32   16   36 1
    33   16   37 1
    34   17   21 1
    35   17   18 1
    36   18   19 2
    37   18   38 1
    38   19   20 1
    39   19   39 1
    40   20   21 2
    41   20   41 1
    42   21   40 1
@<TRIPOS>MOLECULE
ZINC32537474
   40    42     0     0     0
SMALL
USER_CHARGES

@<TRIPOS>ATOM
      1 C1         -0.0184    1.5028    0.0103 C.3       1 <0>        -0.1410
      2 C2          0.0021   -0.0041    0.0020 C.ar      1 <0>         0.2468
      3 C3          0.0060   -0.6955   -1.1937 C.ar      1 <0>        -0.2800
      4 C4          0.0256   -2.0913   -1.1560 C.ar      1 <0>         0.5242
      5 N1          0.0398   -2.7046    0.0233 N.ar      1 <0>        -0.5796
      6 C5          0.0355   -2.0046    1.1476 C.ar      1 <0>         0.6669
      7 N2          0.0221   -0.6797    1.1415 N.ar      1 <0>        -0.5756
      8 N3          0.0506   -2.6736    2.3590 N.pl3     1 <0>        -0.7931
      9 N4          0.0297   -2.8261   -2.3304 N.pl3     1 <0>        -0.6542
     10 C6          0.0134   -2.1393   -3.6243 C.3       1 <0>         0.1809
     11 H1          0.5905   -1.2173   -3.5535 H         1 <0>         0.1097
     12 C7         -1.4303   -1.8092   -4.0083 C.3       1 <0>        -0.1716
     13 C8          0.6209   -3.0327   -4.6749 C.ar      1 <0>        -0.1199
     14 C9          0.3414   -4.3869   -4.6747 C.ar      1 <0>        -0.0869
     15 C10         0.8963   -5.2082   -5.6366 C.ar      1 <0>        -0.1060
     16 C11         1.7355   -4.6727   -6.6043 C.ar      1 <0>         0.1724
     17 C12         2.0144   -3.3127   -6.6019 C.ar      1 <0>        -0.1290
     18 C13         1.4522   -2.4956   -5.6406 C.ar      1 <0>        -0.0702
     19 N5          2.3007   -5.5039   -7.5818 N.pl3     1 <0>        -0.3427
     20 C14         3.1321   -5.1332   -8.5750 C.2       1 <0>         0.2664
     21 N6          3.4335   -6.1999   -9.2702 N.2       1 <0>        -0.5285
     22 C15         2.8182   -7.2640   -8.7556 C.2       1 <0>         0.2189
     23 N7          2.1178   -6.8898   -7.7169 N.2       1 <0>        -0.3142
     24 H2          1.0042    1.8801    0.0026 H         1 <0>         0.1185
     25 H3         -0.5455    1.8639   -0.8728 H         1 <0>         0.1188
     26 H4         -0.5286    1.8543    0.9071 H         1 <0>         0.0999
     27 H5         -0.0063   -0.1687   -2.1364 H         1 <0>         0.1839
     28 H6          0.0642   -3.6433    2.3773 H         1 <0>         0.4447
     29 H7          0.0476   -2.1728    3.1897 H         1 <0>         0.4300
     30 H8          0.0434   -3.7954   -2.2959 H         1 <0>         0.4242
     31 H9         -1.8697   -1.1630   -3.2484 H         1 <0>         0.0686
     32 H10        -1.4425   -1.2981   -4.9710 H         1 <0>         0.0891
     33 H11        -2.0074   -2.7312   -4.0791 H         1 <0>         0.0734
     34 H12        -0.3113   -4.8029   -3.9214 H         1 <0>         0.1314
     35 H13         0.6779   -6.2658   -5.6358 H         1 <0>         0.1455
     36 H14         2.6668   -2.8933   -7.3535 H         1 <0>         0.1415
     37 H15         1.6655   -1.4369   -5.6407 H         1 <0>         0.1424
     38 H16         3.4875   -4.1310   -8.7641 H         1 <0>         0.2254
     39 H17         2.8905   -8.2735   -9.1327 H         1 <0>         0.2283
     40 H18         0.0231   -0.1976    1.9832 H         1 <0>         0.4407
@<TRIPOS>BOND
     1    1    2 1
     2    1   24 1
     3    1   25 1
     4    1   26 1
     5    2    7 ar
     6    2    3 ar
     7    3    4 ar
     8    3   27 1
     9    4    5 ar
    10    4    9 1
    11    5    6 ar
    12    6    7 ar
    13    6    8 1
    14    7   40 1
    15    8   28 1
    16    8   29 1
    17    9   10 1
    18    9   30 1
    19   10   11 1
    20   10   12 1
    21   10   13 1
    22   12   31 1
    23   12   32 1
    24   12   33 1
    25   13   18 ar
    26   13   14 ar
    27   14   15 ar
    28   14   34 1
    29   15   16 ar
    30   15   35 1
    31   16   17 ar
    32   16   19 1
    33   17   18 ar
    34   17   36 1
    35   18   37 1
    36   19   23 1
    37   19   20 1
    38   20   21 2
    39   20   38 1
    40   21   22 1
    41   22   23 2
    42   22   39 1
@<TRIPOS>MOLECULE
ZINC48349991
   52    53     0     0     0
SMALL
USER_CHARGES

@<TRIPOS>ATOM
      1 C1         -0.0187    1.5258    0.0104 C.3       1 <0>        -0.1542
      2 C2          0.0021   -0.0041    0.0020 C.3       1 <0>        -0.1380
      3 C3          0.7182   -0.4975   -1.2568 C.3       1 <0>         0.1120
      4 N1          0.7381   -1.9623   -1.2648 N.am      1 <0>        -0.7026
      5 C4          1.3211   -2.6228   -2.2848 C.2       1 <0>         0.4988
      6 O1          1.8293   -2.0044   -3.1960 O.2       1 <0>        -0.5278
      7 C5          1.3415   -4.1296   -2.2931 C.3       1 <0>        -0.0317
      8 N2          2.0291   -4.6034   -3.5017 N.4       1 <0>        -0.3710
      9 C6          3.4362   -4.1878   -3.4570 C.3       1 <0>        -0.0125
     10 C7          4.1375   -4.6083   -4.7504 C.3       1 <0>        -0.1516
     11 C8          4.0576   -6.1306   -4.8963 C.3       1 <0>         0.1553
     12 C9          2.5879   -6.5600   -4.8670 C.3       1 <0>        -0.1612
     13 C10         1.9440   -6.0671   -3.5693 C.3       1 <0>        -0.0025
     14 N3          4.6602   -6.5331   -6.1695 N.am      1 <0>        -0.7428
     15 C11         5.1630   -7.7751   -6.3144 C.2       1 <0>         0.7117
     16 O2          5.1164   -8.5616   -5.3883 O.2       1 <0>        -0.5808
     17 N4          5.7174   -8.1453   -7.4857 N.am      1 <0>        -0.7358
     18 C12         6.2638   -9.4955   -7.6432 C.3       1 <0>         0.2345
     19 C13         6.8201   -9.6531   -9.0348 C.2       1 <0>         0.0117
     20 N5          8.0360   -9.4114   -9.4573 N.2       1 <0>        -0.4915
     21 C14         8.3745   -9.5997  -10.7172 C.2       1 <0>         0.0591
     22 C15         7.4062  -10.0546  -11.5531 C.2       1 <0>        -0.2152
     23 S1          6.0314  -10.1894  -10.4216 S.3       1 <0>         0.1302
     24 C16         9.7723   -9.3224  -11.2074 C.3       1 <0>        -0.0836
     25 H1          1.0039    1.9031    0.0027 H         1 <0>         0.0610
     26 H2         -0.5459    1.8868   -0.8726 H         1 <0>         0.0610
     27 H3         -0.5289    1.8773    0.9072 H         1 <0>         0.0677
     28 H4          0.5293   -0.3651    0.8851 H         1 <0>         0.0731
     29 H5         -1.0205   -0.3814    0.0098 H         1 <0>         0.0730
     30 H6          0.1910   -0.1364   -2.1398 H         1 <0>         0.0801
     31 H7          1.7408   -0.1202   -1.2645 H         1 <0>         0.0801
     32 H8          0.3316   -2.4569   -0.5361 H         1 <0>         0.4116
     33 H9          1.8687   -4.4907   -1.4101 H         1 <0>         0.1608
     34 H10         0.3189   -4.5069   -2.2854 H         1 <0>         0.1615
     35 H11         3.4914   -3.1045   -3.3500 H         1 <0>         0.1523
     36 H12         3.9276   -4.6615   -2.6072 H         1 <0>         0.1301
     37 H13         3.6469   -4.1349   -5.6009 H         1 <0>         0.0955
     38 H14         5.1825   -4.3004   -4.7145 H         1 <0>         0.1200
     39 H15         4.5921   -6.6042   -4.0729 H         1 <0>         0.1075
     40 H16         2.0652   -6.1271   -5.7199 H         1 <0>         0.0911
     41 H17         2.5252   -7.6471   -4.9144 H         1 <0>         0.1212
     42 H18         2.4673   -6.5008   -2.7171 H         1 <0>         0.1354
     43 H19         0.8976   -6.3713   -3.5451 H         1 <0>         0.1363
     44 H20         4.6974   -5.9056   -6.9083 H         1 <0>         0.4031
     45 H21         5.7545   -7.5179   -8.2245 H         1 <0>         0.4019
     46 H22         7.0587   -9.6530   -6.9142 H         1 <0>         0.1030
     47 H23         5.4732  -10.2284   -7.4827 H         1 <0>         0.0981
     48 H24         7.4549  -10.2768  -12.6089 H         1 <0>         0.2014
     49 H25        10.3773  -10.2238  -11.1093 H         1 <0>         0.0788
     50 H26         9.7370   -9.0207  -12.2543 H         1 <0>         0.0782
     51 H27        10.2136   -8.5222  -10.6134 H         1 <0>         0.0761
     52 H28         1.5883   -4.2039   -4.3167 H         1 <0>         0.4295
@<TRIPOS>BOND
     1    1    2 1
     2    1   25 1
     3    1   26 1
     4    1   27 1
     5    2    3 1
     6    2   28 1
     7    2   29 1
     8    3    4 1
     9    3   30 1
    10    3   31 1
    11    4    5 am
    12    4   32 1
    13    5    6 2
    14    5    7 1
    15    7    8 1
    16    7   33 1
    17    7   34 1
    18    8   13 1
    19    8    9 1
    20    8   52 1
    21    9   10 1
    22    9   35 1
    23    9   36 1
    24   10   11 1
    25   10   37 1
    26   10   38 1
    27   11   12 1
    28   11   14 1
    29   11   39 1
    30   12   13 1
    31   12   40 1
    32   12   41 1
    33   13   42 1
    34   13   43 1
    35   14   15 am
    36   14   44 1
    37   15   16 2
    38   15   17 am
    39   17   18 1
    40   17   45 1
    41   18   19 1
    42   18   46 1
    43   18   47 1
    44   19   23 1
    45   19   20 2
    46   20   21 1
    47   21   22 2
    48   21   24 1
    49   22   23 1
    50   22   48 1
    51   24   49 1
    52   24   50 1
    53   24   51 1
@<TRIPOS>MOLECULE
ZINC41443525
   46    47     0     0     0
SMALL
USER_CHARGES

@<TRIPOS>ATOM
      1 C1         -0.0187    1.5258    0.0104 C.3       1 <0>        -0.1682
      2 C2          0.0021   -0.0041    0.0020 C.3       1 <0>         0.1450
      3 H1         -1.0205   -0.3814    0.0098 H         1 <0>         0.1068
      4 C3          0.7421   -0.5109    1.2415 C.3       1 <0>         0.0829
      5 N1          0.6591   -1.9725    1.2962 N.pl3     1 <0>        -0.4048
      6 C4         -0.3202   -2.7082    1.9072 C.2       1 <0>         0.0286
      7 C5         -0.0102   -4.0047    1.7160 C.2       1 <0>         0.0052
      8 N2          1.1273   -4.0592    1.0075 N.pl3     1 <0>        -0.4737
      9 C6          1.5314   -2.8457    0.7481 C.cat     1 <0>         0.2845
     10 N3          0.6878   -0.4765   -1.2033 N.am      1 <0>        -0.7556
     11 C7          0.0062   -0.6081   -2.3585 C.2       1 <0>         0.7044
     12 O1         -1.1778   -0.3348   -2.4004 O.2       1 <0>        -0.5758
     13 N4          0.6370   -1.0428   -3.4674 N.am      1 <0>        -0.7346
     14 C8         -0.1039   -1.1859   -4.7231 C.3       1 <0>         0.1137
     15 C9          0.8390   -1.6915   -5.8168 C.3       1 <0>         0.1523
     16 H2          1.6982   -1.0250   -5.8926 H         1 <0>         0.1192
     17 C10         0.1090   -1.7219   -7.1349 C.ar      1 <0>        -0.1596
     18 C11        -0.4918   -2.8891   -7.5657 C.ar      1 <0>        -0.0712
     19 C12        -1.1612   -2.9177   -8.7749 C.ar      1 <0>        -0.1518
     20 C13        -1.2317   -1.7788   -9.5561 C.ar      1 <0>        -0.0702
     21 C14        -0.6330   -0.6093   -9.1296 C.ar      1 <0>        -0.2041
     22 C15         0.0349   -0.5766   -7.9139 C.ar      1 <0>         0.1403
     23 O2          0.6200    0.5743   -7.4895 O.3       1 <0>        -0.3181
     24 C16         0.5035    1.7144   -8.3431 C.3       1 <0>         0.0253
     25 O3          1.2856   -3.0088   -5.4892 O.3       1 <0>        -0.5535
     26 H3          1.0039    1.9031    0.0027 H         1 <0>         0.0680
     27 H4         -0.5459    1.8868   -0.8726 H         1 <0>         0.0812
     28 H5         -0.5289    1.8773    0.9072 H         1 <0>         0.0777
     29 H6          1.7879   -0.2080    1.1895 H         1 <0>         0.1281
     30 H7          0.2852   -0.0874    2.1360 H         1 <0>         0.1431
     31 H8         -1.1767   -2.3229    2.4405 H         1 <0>         0.2242
     32 H9         -0.5781   -4.8520    2.0709 H         1 <0>         0.2243
     33 H10         2.4179   -2.5833    0.1899 H         1 <0>         0.2551
     34 H11         1.6324   -0.6946   -1.1699 H         1 <0>         0.3923
     35 H12         1.5816   -1.2609   -3.4340 H         1 <0>         0.4001
     36 H13        -0.9168   -1.8989   -4.5861 H         1 <0>         0.0720
     37 H14        -0.5138   -0.2191   -5.0153 H         1 <0>         0.0833
     38 H15        -0.4382   -3.7799   -6.9574 H         1 <0>         0.1281
     39 H16        -1.6297   -3.8312   -9.1103 H         1 <0>         0.1292
     40 H17        -1.7549   -1.8038  -10.5005 H         1 <0>         0.1303
     41 H18        -0.6883    0.2799   -9.7401 H         1 <0>         0.1332
     42 H19         0.9584    1.4933   -9.3087 H         1 <0>         0.0595
     43 H20        -0.5499    1.9562   -8.4847 H         1 <0>         0.0590
     44 H21         1.0131    2.5632   -7.8872 H         1 <0>         0.1035
     45 H22         0.5724   -3.6564   -5.4055 H         1 <0>         0.3755
     46 H23         1.5768   -4.8723    0.7287 H         1 <0>         0.4652
@<TRIPOS>BOND
     1    1    2 1
     2    1   26 1
     3    1   27 1
     4    1   28 1
     5    2    3 1
     6    2    4 1
     7    2   10 1
     8    4    5 1
     9    4   29 1
    10    4   30 1
    11    5    9 1
    12    5    6 1
    13    6    7 2
    14    6   31 1
    15    7    8 1
    16    7   32 1
    17    8    9 2
    18    8   46 1
    19    9   33 1
    20   10   11 am
    21   10   34 1
    22   11   12 2
    23   11   13 am
    24   13   14 1
    25   13   35 1
    26   14   15 1
    27   14   36 1
    28   14   37 1
    29   15   16 1
    30   15   17 1
    31   15   25 1
    32   17   22 ar
    33   17   18 ar
    34   18   19 ar
    35   18   38 1
    36   19   20 ar
    37   19   39 1
    38   20   21 ar
    39   20   40 1
    40   21   22 ar
    41   21   41 1
    42   22   23 1
    43   23   24 1
    44   24   42 1
    45   24   43 1
    46   24   44 1
    47   25   45 1
@<TRIPOS>MOLECULE
ZINC08923405
   59    63     0     0     0
SMALL
USER_CHARGES
[4-(hydroxy-isopropyl-BLAHyl)-2-methoxy-phenyl] thiophene-2-carboxylate
@<TRIPOS>ATOM
      1 C1         -7.8216   -1.6362   -8.6283 C.3       1 <0>        -0.1834
      2 C2         -9.2163   -2.1125   -8.2177 C.3       1 <0>         0.0296
      3 C3         -9.3468   -3.6108   -8.4988 C.3       1 <0>        -0.1862
      4 C4         -9.3563   -0.4265   -6.4849 C.3       1 <0>        -0.0020
      5 C5         -9.9292   -0.1537   -5.0915 C.3       1 <0>        -0.0846
      6 C6         -9.2372   -1.0838   -4.1011 C.2       1 <0>        -0.0046
      7 C7         -8.5727   -2.1755   -4.5506 C.2       1 <0>        -0.3152
      8 S1         -7.9351   -2.9525   -3.0911 S.3       1 <0>         0.2370
      9 C8         -8.5394   -1.8585   -1.9220 C.2       1 <0>         0.1569
     10 C9         -9.2282   -0.8898   -2.6638 C.2       1 <0>        -0.2551
     11 C10        -9.8655    0.2191   -1.9081 C.2       1 <0>         0.4600
     12 N1         -9.5794    0.3335   -0.6422 N.2       1 <0>        -0.6257
     13 C11        -8.6045   -0.4835    0.0694 C.3       1 <0>         0.3942
     14 H1         -8.9316   -0.6091    1.1016 H         1 <0>         0.1346
     15 N2         -8.4519   -1.8121   -0.5517 N.pl3     1 <0>        -0.6872
     16 C12        -7.2720    0.2202    0.0586 C.ar      1 <0>        -0.0820
     17 C13        -6.1026   -0.5163    0.1026 C.ar      1 <0>        -0.1290
     18 C14        -4.8778    0.1241    0.0875 C.ar      1 <0>        -0.0774
     19 C15        -4.8200    1.5080    0.0398 C.ar      1 <0>         0.0615
     20 C16        -5.9970    2.2493   -0.0045 C.ar      1 <0>         0.1354
     21 C17        -7.2215    1.6005    0.0051 C.ar      1 <0>        -0.1669
     22 O1         -5.9456    3.6070   -0.0576 O.3       1 <0>        -0.3048
     23 C18        -7.1933    4.3023   -0.1010 C.3       1 <0>         0.0258
     24 O2         -3.6159    2.1398    0.0306 O.3       1 <0>        -0.2782
     25 C19        -3.1278    2.5450    1.2211 C.2       1 <0>         0.5546
     26 O3         -3.8003    2.4230    2.2274 O.2       1 <0>        -0.4759
     27 C20        -1.7890    3.1314    1.3020 C.2       1 <0>        -0.2440
     28 C21        -1.1080    3.6061    2.4133 C.2       1 <0>        -0.0499
     29 C22         0.1530    4.1059    2.2067 C.2       1 <0>        -0.1846
     30 C23         0.6644    4.1174    0.9474 C.2       1 <0>        -0.1727
     31 S2         -0.6087    3.4243   -0.0035 S.3       1 <0>         0.1886
     32 O4        -10.7139    1.0812   -2.5146 O.3       1 <0>        -0.4595
     33 C24        -8.4289   -2.6055   -5.9762 C.3       1 <0>         0.1061
     34 H2         -7.6733   -1.8205   -9.6924 H         1 <0>         0.1063
     35 H3         -7.7286   -0.5688   -8.4281 H         1 <0>         0.0815
     36 H4         -7.0691   -2.1799   -8.0571 H         1 <0>         0.0812
     37 H5         -9.9688   -1.5688   -8.7889 H         1 <0>         0.1392
     38 H6        -10.3405   -3.9502   -8.2062 H         1 <0>         0.0817
     39 H7         -9.1986   -3.7951   -9.5628 H         1 <0>         0.1068
     40 H8         -8.5944   -4.1545   -7.9276 H         1 <0>         0.0815
     41 H9         -8.3193   -0.0927   -6.5208 H         1 <0>         0.1330
     42 H10        -9.9381    0.1212   -7.2263 H         1 <0>         0.1362
     43 H11       -11.0018   -0.3481   -5.0906 H         1 <0>         0.1087
     44 H12        -9.7428    0.8837   -4.8136 H         1 <0>         0.1282
     45 H13        -8.2977   -2.6097   -0.0217 H         1 <0>         0.4260
     46 H14        -6.1463   -1.5946    0.1443 H         1 <0>         0.1300
     47 H15        -3.9659   -0.4538    0.1171 H         1 <0>         0.1426
     48 H16        -8.1365    2.1733   -0.0296 H         1 <0>         0.1470
     49 H17        -7.7496    3.9954   -0.9867 H         1 <0>         0.0562
     50 H18        -7.7723    4.0657    0.7918 H         1 <0>         0.0610
     51 H19        -7.0098    5.3759   -0.1411 H         1 <0>         0.1070
     52 H20        -1.5492    3.5792    3.3987 H         1 <0>         0.1514
     53 H21         0.7327    4.4854    3.0352 H         1 <0>         0.1476
     54 H22         1.6300    4.4725    0.6187 H         1 <0>         0.1967
     55 H23       -11.0689    1.7624   -1.9272 H         1 <0>         0.4158
     56 H24        -7.4223   -2.3802   -6.3284 H         1 <0>         0.1421
     57 H25        -8.6166   -3.6761   -6.0580 H         1 <0>         0.1382
     58 N3         -9.4402   -1.8723   -6.7758 N.4       1 <0>        -0.3914
     59 H26       -10.3760   -2.2105   -6.5225 H         1 <0>         0.4303
@<TRIPOS>BOND
     1    1    2 1
     2    1   34 1
     3    1   35 1
     4    1   36 1
     5    2    3 1
     6    2   37 1
     7    2   58 1
     8    3   38 1
     9    3   39 1
    10    3   40 1
    11    4    5 1
    12    4   41 1
    13    4   42 1
    14    4   58 1
    15    5    6 1
    16    5   43 1
    17    5   44 1
    18    6   10 1
    19    6    7 2
    20    7    8 1
    21    7   33 1
    22    8    9 1
    23    9   15 1
    24    9   10 2
    25   10   11 1
    26   11   12 2
    27   11   32 1
    28   12   13 1
    29   13   14 1
    30   13   15 1
    31   13   16 1
    32   15   45 1
    33   16   21 ar
    34   16   17 ar
    35   17   18 ar
    36   17   46 1
    37   18   19 ar
    38   18   47 1
    39   19   20 ar
    40   19   24 1
    41   20   21 ar
    42   20   22 1
    43   21   48 1
    44   22   23 1
    45   23   49 1
    46   23   50 1
    47   23   51 1
    48   24   25 1
    49   25   26 2
    50   25   27 1
    51   27   31 1
    52   27   28 2
    53   28   29 1
    54   28   52 1
    55   29   30 2
    56   29   53 1
    57   30   31 1
    58   30   54 1
    59   32   55 1
    60   33   56 1
    61   33   57 1
    62   33   58 1
    63   58   59 1
@<TRIPOS>MOLECULE
ZINC32865327
   53    55     0     0     0
SMALL
USER_CHARGES
(2R)-N-[2-chloro-5-(trifluoromethyl)phenyl]-2-[4-(2-thienylsulfonylamino)-1-piperidyl]propanamide
@<TRIPOS>ATOM
      1 C1          1.5119    1.7449    7.1330 C.3       1 <0>        -0.1864
      2 C2          2.1412    2.6460    6.0686 C.3       1 <0>         0.0162
      3 H1          2.1289    3.6989    6.3867 H         1 <0>         0.1692
      4 C3          1.3853    2.4971    4.7735 C.2       1 <0>         0.5115
      5 O1          1.9580    2.1059    3.7785 O.2       1 <0>        -0.5095
      6 N1          0.0727    2.7988    4.7208 N.am      1 <0>        -0.6559
      7 C4         -0.6508    2.5719    3.5442 C.ar      1 <0>         0.1383
      8 C5         -0.0408    2.7415    2.3085 C.ar      1 <0>        -0.0595
      9 C6         -0.7572    2.5165    1.1493 C.ar      1 <0>        -0.1589
     10 C7         -2.0827    2.1280    1.2177 C.ar      1 <0>        -0.0567
     11 C8         -2.6923    1.9525    2.4462 C.ar      1 <0>        -0.0874
     12 C9         -1.9812    2.1760    3.6102 C.ar      1 <0>        -0.0263
     13 Cl1        -2.7488    1.9618    5.1525 Cl        1 <0>        -0.0377
     14 C10        -0.0953    2.7006   -0.1920 C.3       1 <0>         0.5107
     15 F1          0.4863    1.4935   -0.5946 F         1 <0>        -0.1703
     16 F2          0.8941    3.6847   -0.0927 F         1 <0>        -0.1740
     17 F3         -1.0518    3.0943   -1.1339 F         1 <0>        -0.1686
     18 N2          3.5432    2.2575    5.8647 N.4       1 <0>        -0.3880
     19 C11         3.6441    0.8563    5.4371 C.3       1 <0>        -0.0224
     20 C12         5.0995    0.5296    5.0949 C.3       1 <0>        -0.1718
     21 C13         5.9750    0.7708    6.3277 C.3       1 <0>         0.1382
     22 C14         5.8145    2.2243    6.7816 C.3       1 <0>        -0.1452
     23 C15         4.3383    2.5019    7.0749 C.3       1 <0>        -0.0054
     24 N3          7.3775    0.5155    5.9898 N.pl3     1 <0>        -1.1168
     25 S1          8.0482   -0.9659    6.3025 S.o2      1 <0>         2.7248
     26 O2          9.3918   -0.9086    5.8435 O.2       1 <0>        -0.9363
     27 O3          7.7152   -1.2870    7.6462 O.2       1 <0>        -0.9403
     28 C16         7.2176   -2.1394    5.2838 C.2       1 <0>        -0.7835
     29 C17         7.5240   -2.5479    4.0281 C.2       1 <0>         0.0078
     30 C18         6.7209   -3.4915    3.4155 C.2       1 <0>        -0.1931
     31 C19         5.6507   -3.9804    4.0885 C.2       1 <0>        -0.1172
     32 S2          5.7587   -3.1046    5.6404 S.3       1 <0>         0.1453
     33 H2          2.0637    1.8536    8.0783 H         1 <0>         0.1026
     34 H3          1.5575    0.6974    6.8002 H         1 <0>         0.0925
     35 H4          0.4621    2.0358    7.2857 H         1 <0>         0.1103
     36 H5         -0.4299    3.2233    5.6024 H         1 <0>         0.4508
     37 H6          0.9931    3.0488    2.2538 H         1 <0>         0.1611
     38 H7         -2.6416    1.9571    0.3096 H         1 <0>         0.1557
     39 H8         -3.7263    1.6448    2.4963 H         1 <0>         0.1589
     40 H9          3.3028    0.1992    6.2506 H         1 <0>         0.1288
     41 H10         3.0146    0.6977    4.5491 H         1 <0>         0.1569
     42 H11         5.1765   -0.5241    4.7888 H         1 <0>         0.1142
     43 H12         5.4366    1.1762    4.2714 H         1 <0>         0.1021
     44 H13         5.7090    0.0763    7.1382 H         1 <0>         0.1103
     45 H14         6.4089    2.3919    7.6919 H         1 <0>         0.1274
     46 H15         6.1650    2.8978    5.9857 H         1 <0>         0.1002
     47 H16         4.2177    3.5497    7.3874 H         1 <0>         0.1410
     48 H17         3.9936    1.8370    7.8806 H         1 <0>         0.1353
     49 H18         7.9382    1.2420    5.3833 H         1 <0>         0.4499
     50 H19         8.3826   -2.1419    3.5139 H         1 <0>         0.1507
     51 H20         6.9431   -3.8343    2.4157 H         1 <0>         0.1508
     52 H21         4.9237   -4.7128    3.7700 H         1 <0>         0.2000
     53 H22         3.9558    2.8840    5.0602 H         1 <0>         0.4493
@<TRIPOS>BOND
     1    1    2 1
     2    1   33 1
     3    1   34 1
     4    1   35 1
     5    2    3 1
     6    2    4 1
     7    2   18 1
     8    4    5 2
     9    4    6 am
    10    6    7 1
    11    6   36 1
    12    7   12 ar
    13    7    8 ar
    14    8    9 ar
    15    8   37 1
    16    9   10 ar
    17    9   14 1
    18   10   11 ar
    19   10   38 1
    20   11   12 ar
    21   11   39 1
    22   12   13 1
    23   14   15 1
    24   14   16 1
    25   14   17 1
    26   18   23 1
    27   18   19 1
    28   18   53 1
    29   19   20 1
    30   19   40 1
    31   19   41 1
    32   20   21 1
    33   20   42 1
    34   20   43 1
    35   21   22 1
    36   21   24 1
    37   21   44 1
    38   22   23 1
    39   22   45 1
    40   22   46 1
    41   23   47 1
    42   23   48 1
    43   24   25 1
    44   24   49 1
    45   25   26 2
    46   25   27 2
    47   25   28 1
    48   28   32 1
    49   28   29 2
    50   29   30 1
    51   29   50 1
    52   30   31 2
    53   30   51 1
    54   31   32 1
    55   31   52 1
@<TRIPOS>MOLECULE
ZINC38799178
   58    62     0     0     0
SMALL
USER_CHARGES

@<TRIPOS>ATOM
      1 C1          0.0245    1.9029   -0.2369 C.3       1 <0>        -0.1630
      2 C2         -0.1024    0.3919   -0.0329 C.3       1 <0>        -0.0849
      3 H1          0.3956    0.1073    0.8940 H         1 <0>         0.1059
      4 C3         -1.5598    0.0160    0.0441 C.2       1 <0>         0.5346
      5 O1         -2.1187   -0.4471   -0.9276 O.2       1 <0>        -0.4824
      6 N1         -2.2420    0.1944    1.1926 N.am      1 <0>        -0.6615
      7 C4         -3.6217   -0.0359    1.2298 C.ar      1 <0>         0.2200
      8 C5         -4.3771    0.0735    0.0694 C.ar      1 <0>        -0.1376
      9 C6         -5.7384   -0.1544    0.1095 C.ar      1 <0>        -0.0373
     10 C7         -6.3498   -0.4913    1.3034 C.ar      1 <0>        -0.1308
     11 C8         -5.6008   -0.6005    2.4604 C.ar      1 <0>        -0.0323
     12 C9         -4.2376   -0.3799    2.4258 C.ar      1 <0>        -0.0860
     13 N2         -3.4353   -0.5039    3.6634 N.pl3     1 <0>         0.0495
     14 O2         -3.9552   -0.8888    4.6848 O.2       1 <0>        -0.1308
     15 O3         -2.2601   -0.2203    3.6530 O.3       1 <0>        -0.2034
     16 S1          0.6726   -0.4736   -1.4260 S.3       1 <0>        -0.1540
     17 C10         2.4288   -0.0407   -1.2895 C.3       1 <0>         0.3748
     18 H2          2.9983   -0.5030   -2.0957 H         1 <0>         0.1415
     19 N3          2.6018    1.4212   -1.3092 N.pl3     1 <0>        -0.5837
     20 N4          3.1883    1.7689   -0.0867 N.2       1 <0>        -0.1672
     21 C11         3.3891    0.7152    0.6601 C.2       1 <0>         0.2656
     22 N5          2.9608   -0.4541    0.0194 N.pl3     1 <0>        -0.5892
     23 C12         3.0242   -1.7567    0.5219 C.ar      1 <0>         0.1493
     24 C13         2.2522   -2.1178    1.6190 C.ar      1 <0>        -0.1252
     25 C14         2.3169   -3.4056    2.1133 C.ar      1 <0>        -0.0922
     26 C15         3.1501   -4.3360    1.5172 C.ar      1 <0>        -0.0243
     27 C16         3.9206   -3.9790    0.4245 C.ar      1 <0>        -0.0871
     28 C17         3.8550   -2.6944   -0.0783 C.ar      1 <0>        -0.0946
     29 Cl1         3.2293   -5.9538    2.1418 Cl        1 <0>        -0.0404
     30 C18         3.9625    0.7505    1.9406 C.2       1 <0>         0.1261
     31 C19         4.4941    1.8613    2.5964 C.ar      1 <0>        -0.1339
     32 C20         4.6247    3.2161    2.2236 C.ar      1 <0>        -0.0154
     33 C21         5.1959    4.0990    3.0828 C.ar      1 <0>        -0.1448
     34 C22         5.6630    3.7009    4.3371 C.ar      1 <0>         0.0467
     35 C23         5.5700    2.4161    4.7604 C.ar      1 <0>        -0.2029
     36 C24         4.9844    1.4364    3.9177 C.ar      1 <0>         0.3154
     37 N6          4.7799    0.1454    4.0922 N.pl3     1 <0>        -0.5918
     38 C25         4.1275   -0.4066    2.9010 C.3       1 <0>         0.0741
     39 H3          1.0786    2.1747   -0.2926 H         1 <0>         0.0887
     40 H4         -0.4735    2.1874   -1.1638 H         1 <0>         0.0824
     41 H5         -0.4412    2.4229    0.6002 H         1 <0>         0.0724
     42 H6         -1.7766    0.4826    1.9934 H         1 <0>         0.4261
     43 H7         -3.9003    0.3368   -0.8632 H         1 <0>         0.1660
     44 H8         -6.3264   -0.0692   -0.7924 H         1 <0>         0.1517
     45 H9         -7.4147   -0.6691    1.3322 H         1 <0>         0.1542
     46 H10        -6.0812   -0.8631    3.3913 H         1 <0>         0.1613
     47 H11         2.3579    2.0247   -2.0283 H         1 <0>         0.4707
     48 H12         1.6023   -1.3919    2.0850 H         1 <0>         0.1354
     49 H13         1.7170   -3.6869    2.9662 H         1 <0>         0.1489
     50 H14         4.5705   -4.7069   -0.0383 H         1 <0>         0.1497
     51 H15         4.4527   -2.4178   -0.9343 H         1 <0>         0.1428
     52 H16         4.2720    3.5493    1.2587 H         1 <0>         0.1613
     53 H17         5.2916    5.1338    2.7888 H         1 <0>         0.1565
     54 H18         6.1113    4.4368    4.9882 H         1 <0>         0.1615
     55 H19         5.9409    2.1393    5.7362 H         1 <0>         0.1619
     56 H20         3.1531   -0.8197    3.1618 H         1 <0>         0.1745
     57 H21         4.7555   -1.1778    2.4550 H         1 <0>         0.1713
     58 H22         5.0201   -0.3588    4.8853 H         1 <0>         0.4559
@<TRIPOS>BOND
     1    1    2 1
     2    1   39 1
     3    1   40 1
     4    1   41 1
     5    2    3 1
     6    2    4 1
     7    2   16 1
     8    4    5 2
     9    4    6 am
    10    6    7 1
    11    6   42 1
    12    7   12 ar
    13    7    8 ar
    14    8    9 ar
    15    8   43 1
    16    9   10 ar
    17    9   44 1
    18   10   11 ar
    19   10   45 1
    20   11   12 ar
    21   11   46 1
    22   12   13 1
    23   13   14 2
    24   13   15 1
    25   16   17 1
    26   17   18 1
    27   17   22 1
    28   17   19 1
    29   19   20 1
    30   19   47 1
    31   20   21 2
    32   21   22 1
    33   21   30 1
    34   22   23 1
    35   23   28 ar
    36   23   24 ar
    37   24   25 ar
    38   24   48 1
    39   25   26 ar
    40   25   49 1
    41   26   27 ar
    42   26   29 1
    43   27   28 ar
    44   27   50 1
    45   28   51 1
    46   30   38 1
    47   30   31 2
    48   31   36 ar
    49   31   32 ar
    50   32   33 ar
    51   32   52 1
    52   33   34 ar
    53   33   53 1
    54   34   35 ar
    55   34   54 1
    56   35   36 ar
    57   35   55 1
    58   36   37 2
    59   37   38 1
    60   37   58 1
    61   38   56 1
    62   38   57 1
@<TRIPOS>MOLECULE
ZINC43526692
   69    73     0     0     0
SMALL
USER_CHARGES

@<TRIPOS>ATOM
      1 C1         -2.1199    0.4796   -0.3985 C.3       1 <0>         0.0902
      2 N1         -0.9773   -0.4176   -0.2094 N.pl3     1 <0>        -0.3543
      3 C2         -0.0653   -0.7480   -1.1489 C.2       1 <0>         0.0725
      4 C3          0.8250   -1.5941   -0.5865 C.2       1 <0>        -0.2581
      5 C4          0.4443   -1.7922    0.7550 C.2       1 <0>         0.1346
      6 N2         -0.6379   -1.0770    0.9788 N.2       1 <0>        -0.2669
      7 C5          1.1432   -2.6509    1.7433 C.ar      1 <0>        -0.0306
      8 C6          2.2915   -3.3480    1.3732 C.ar      1 <0>        -0.0889
      9 C7          2.9414   -4.1460    2.2928 C.ar      1 <0>        -0.1760
     10 C8          2.4537   -4.2566    3.5859 C.ar      1 <0>         0.1188
     11 C9          1.3066   -3.5622    3.9612 C.ar      1 <0>         0.1028
     12 C10         0.6553   -2.7566    3.0442 C.ar      1 <0>        -0.1430
     13 O1          0.8293   -3.6721    5.2299 O.3       1 <0>        -0.3020
     14 C11        -0.3516   -2.9318    5.5452 C.3       1 <0>         0.0244
     15 O2          3.0962   -5.0445    4.4889 O.3       1 <0>        -0.3013
     16 C12         4.2664   -5.7285    4.0363 C.3       1 <0>         0.0236
     17 C13        -0.0447   -0.2591   -2.5742 C.3       1 <0>        -0.0337
     18 H1         -0.5462    0.7067   -2.6364 H         1 <0>         0.1201
     19 C14         1.4040   -0.1160   -3.0464 C.3       1 <0>        -0.0015
     20 N3          1.6435   -0.9856   -4.2006 N.4       1 <0>        -0.3747
     21 C15         1.4364   -2.3901   -3.8398 C.3       1 <0>        -0.0154
     22 C16        -0.0111   -2.6087   -3.3939 C.3       1 <0>        -0.1430
     23 C17        -0.7643   -1.2711   -3.4754 C.3       1 <0>        -0.0893
     24 H2         -1.7980   -1.3958   -3.1529 H         1 <0>         0.1220
     25 C18        -0.6947   -0.7657   -4.9225 C.3       1 <0>        -0.1270
     26 C19         0.7775   -0.6073   -5.3198 C.3       1 <0>         0.0178
     27 H3          0.9683    0.4315   -5.5896 H         1 <0>         0.1488
     28 C20         1.0795   -1.5051   -6.5213 C.3       1 <0>         0.1158
     29 N4          2.5083   -1.4343   -6.8369 N.am      1 <0>        -0.7615
     30 C21         3.0074   -2.1482   -7.8654 C.2       1 <0>         0.7111
     31 O3          2.2718   -2.8509   -8.5313 O.2       1 <0>        -0.5485
     32 N5          4.3219   -2.0831   -8.1557 N.am      1 <0>        -0.6747
     33 C22         4.8229   -2.7398   -9.2885 C.ar      1 <0>         0.1110
     34 C23         4.0401   -2.8539  -10.4287 C.ar      1 <0>        -0.0621
     35 C24         4.5354   -3.5009  -11.5443 C.ar      1 <0>        -0.1397
     36 C25         5.8123   -4.0363  -11.5264 C.ar      1 <0>         0.1272
     37 C26         6.5962   -3.9249  -10.3905 C.ar      1 <0>        -0.1702
     38 C27         6.1069   -3.2727   -9.2734 C.ar      1 <0>         0.1078
     39 F1          6.8736   -3.1584   -8.1669 F         1 <0>        -0.1283
     40 F2          6.2938   -4.6689  -12.6187 F         1 <0>        -0.1235
     41 H4         -1.8210    1.5021   -0.1673 H         1 <0>         0.0836
     42 H5         -2.4575    0.4249   -1.4334 H         1 <0>         0.0887
     43 H6         -2.9312    0.1795    0.2647 H         1 <0>         0.0996
     44 H7          1.6769   -2.0399   -1.0783 H         1 <0>         0.1448
     45 H8          2.6729   -3.2640    0.3663 H         1 <0>         0.1262
     46 H9          3.8314   -4.6857    2.0044 H         1 <0>         0.1420
     47 H10        -0.2322   -2.2141    3.3349 H         1 <0>         0.1432
     48 H11        -0.6239   -3.1081    6.5858 H         1 <0>         0.1058
     49 H12        -0.1653   -1.8687    5.3935 H         1 <0>         0.0564
     50 H13        -1.1664   -3.2540    4.8968 H         1 <0>         0.0564
     51 H14         4.0050   -6.3862    3.2073 H         1 <0>         0.0574
     52 H15         5.0066   -5.0009    3.7034 H         1 <0>         0.0574
     53 H16         4.6801   -6.3201    4.8529 H         1 <0>         0.1057
     54 H17         1.5917    0.9199   -3.3288 H         1 <0>         0.1408
     55 H18         2.0776   -0.3961   -2.2365 H         1 <0>         0.1435
     56 H19         1.6479   -3.0203   -4.7036 H         1 <0>         0.1343
     57 H20         2.1099   -2.6574   -3.0256 H         1 <0>         0.1333
     58 H21        -0.4891   -3.3369   -4.0491 H         1 <0>         0.1048
     59 H22        -0.0258   -2.9734   -2.3668 H         1 <0>         0.1108
     60 H23        -1.1777   -1.4847   -5.5842 H         1 <0>         0.1131
     61 H24        -1.1982    0.1982   -4.9974 H         1 <0>         0.1105
     62 H25         0.8106   -2.5341   -6.2827 H         1 <0>         0.1002
     63 H26         0.5004   -1.1683   -7.3812 H         1 <0>         0.1183
     64 H27         3.0952   -0.8738   -6.3057 H         1 <0>         0.3918
     65 H28         4.9213   -1.5820   -7.5809 H         1 <0>         0.4119
     66 H29         3.0437   -2.4373  -10.4437 H         1 <0>         0.1560
     67 H30         3.9259   -3.5895  -12.4314 H         1 <0>         0.1519
     68 H31         7.5917   -4.3435  -10.3785 H         1 <0>         0.1579
     69 H32         2.6041   -0.8759   -4.4890 H         1 <0>         0.4191
@<TRIPOS>BOND
     1    1    2 1
     2    1   41 1
     3    1   42 1
     4    1   43 1
     5    2    6 1
     6    2    3 1
     7    3    4 2
     8    3   17 1
     9    4    5 1
    10    4   44 1
    11    5    6 2
    12    5    7 1
    13    7   12 ar
    14    7    8 ar
    15    8    9 ar
    16    8   45 1
    17    9   10 ar
    18    9   46 1
    19   10   11 ar
    20   10   15 1
    21   11   12 ar
    22   11   13 1
    23   12   47 1
    24   13   14 1
    25   14   48 1
    26   14   49 1
    27   14   50 1
    28   15   16 1
    29   16   51 1
    30   16   52 1
    31   16   53 1
    32   17   18 1
    33   17   23 1
    34   17   19 1
    35   19   20 1
    36   19   54 1
    37   19   55 1
    38   20   26 1
    39   20   21 1
    40   20   69 1
    41   21   22 1
    42   21   56 1
    43   21   57 1
    44   22   23 1
    45   22   58 1
    46   22   59 1
    47   23   24 1
    48   23   25 1
    49   25   26 1
    50   25   60 1
    51   25   61 1
    52   26   27 1
    53   26   28 1
    54   28   29 1
    55   28   62 1
    56   28   63 1
    57   29   30 am
    58   29   64 1
    59   30   31 2
    60   30   32 am
    61   32   33 1
    62   32   65 1
    63   33   38 ar
    64   33   34 ar
    65   34   35 ar
    66   34   66 1
    67   35   36 ar
    68   35   67 1
    69   36   37 ar
    70   36   40 1
    71   37   38 ar
    72   37   68 1
    73   38   39 1
@<TRIPOS>MOLECULE
ZINC63546966
   58    62     0     0     0
SMALL
USER_CHARGES

@<TRIPOS>ATOM
      1 C1         -0.0173    1.4248    0.0099 C.3       1 <0>         0.0253
      2 O1          0.0021   -0.0041    0.0020 O.3       1 <0>        -0.3114
      3 C2         -1.1993   -0.6369    0.0101 C.ar      1 <0>         0.1538
      4 C3         -2.3735    0.1052    0.0196 C.ar      1 <0>        -0.2203
      5 C4         -3.5944   -0.5340    0.0278 C.ar      1 <0>        -0.0267
      6 C5         -3.6501   -1.9280    0.0266 C.ar      1 <0>        -0.1064
      7 C6         -2.4690   -2.6704    0.0170 C.ar      1 <0>        -0.0448
      8 C7         -1.2514   -2.0251    0.0031 C.ar      1 <0>        -0.1544
      9 C8         -4.9609   -2.6185    0.0359 C.2       1 <0>         0.2820
     10 N1         -6.0569   -1.9004    0.0398 N.2       1 <0>        -0.5283
     11 C9         -7.3655   -2.5595    0.0534 C.3       1 <0>         0.3678
     12 H1         -7.7667   -2.6663   -0.9544 H         1 <0>         0.1001
     13 C10        -8.3322   -1.8314    0.9583 C.2       1 <0>        -0.3482
     14 H2         -8.4766   -4.7731    2.1185 H         1 <0>         0.4421
     15 C11        -8.7762   -2.7319    1.8603 C.2       1 <0>         0.2490
     16 N2         -8.2082   -3.9575    1.6672 N.pl3     1 <0>        -0.5045
     17 N3         -7.1842   -3.8740    0.7079 N.pl3     1 <0>        -0.4511
     18 C12        -6.1417   -4.7128    0.4032 C.2       1 <0>         0.1175
     19 C13        -4.9918   -4.0844    0.0344 C.2       1 <0>        -0.1772
     20 C14        -6.2619   -6.2136    0.4662 C.3       1 <0>         0.5136
     21 F1         -5.0424   -6.7948    0.1028 F         1 <0>        -0.1552
     22 F2         -6.5930   -6.6006    1.7693 F         1 <0>        -0.1716
     23 F3         -7.2621   -6.6388   -0.4148 F         1 <0>        -0.1629
     24 C15        -8.7002   -0.4682    0.8762 C.2       1 <0>         0.6184
     25 O2         -9.4953   -0.0032    1.6729 O.2       1 <0>        -0.5583
     26 N4         -8.1711    0.3161   -0.0837 N.am      1 <0>        -0.7310
     27 C16        -8.5524    1.7280   -0.1686 C.3       1 <0>         0.1309
     28 C17        -7.8145    2.3862   -1.3362 C.3       1 <0>        -0.1095
     29 C18        -8.2067    3.8386   -1.4236 C.2       1 <0>         0.0872
     30 C19        -7.5471    4.8924   -0.8910 C.ar      1 <0>        -0.1660
     31 C20        -6.3148    4.9975   -0.1006 C.ar      1 <0>        -0.0031
     32 C21        -5.8945    6.2198    0.3004 C.ar      1 <0>        -0.0769
     33 C22        -6.6061    7.3857   -0.0197 C.ar      1 <0>         0.0528
     34 C23        -7.7461    7.3685   -0.7420 C.ar      1 <0>        -0.1887
     35 C24        -8.2789    6.1377   -1.2156 C.ar      1 <0>         0.3292
     36 N5         -9.3492    5.8643   -1.9215 N.pl3     1 <0>        -0.5784
     37 C25        -9.4139    4.4135   -2.1302 C.3       1 <0>         0.0584
     38 Cl1        -4.4375    6.3484    1.2354 Cl        1 <0>        -0.0155
     39 H3          1.0053    1.8021    0.0021 H         1 <0>         0.1046
     40 H4         -0.5445    1.7859   -0.8732 H         1 <0>         0.0572
     41 H5         -0.5275    1.7763    0.9067 H         1 <0>         0.0577
     42 H6         -2.3297    1.1843    0.0208 H         1 <0>         0.1316
     43 H7         -4.5069    0.0435    0.0355 H         1 <0>         0.1348
     44 H8         -2.5089   -3.7497    0.0161 H         1 <0>         0.1380
     45 H9         -0.3367   -2.5992   -0.0087 H         1 <0>         0.1402
     46 H10        -9.4919   -2.5101    2.6381 H         1 <0>         0.2005
     47 H11        -4.1186   -4.6530   -0.2497 H         1 <0>         0.1674
     48 H12        -7.5379   -0.0543   -0.7182 H         1 <0>         0.4090
     49 H13        -9.6278    1.8050   -0.3288 H         1 <0>         0.0765
     50 H14        -8.2864    2.2327    0.7601 H         1 <0>         0.0768
     51 H15        -6.7391    2.3092   -1.1760 H         1 <0>         0.1178
     52 H16        -8.0805    1.8815   -2.2650 H         1 <0>         0.1211
     53 H17        -5.7521    4.1126    0.1575 H         1 <0>         0.1703
     54 H18        -6.2264    8.3357    0.3263 H         1 <0>         0.1701
     55 H19        -8.2567    8.2946   -0.9614 H         1 <0>         0.1706
     56 H20        -9.3716    4.1825   -3.1946 H         1 <0>         0.1799
     57 H21       -10.3298    4.0141   -1.6946 H         1 <0>         0.1798
     58 H22        -9.9893    6.5131   -2.2536 H         1 <0>         0.4581
@<TRIPOS>BOND
     1    1    2 1
     2    1   39 1
     3    1   40 1
     4    1   41 1
     5    2    3 1
     6    3    8 ar
     7    3    4 ar
     8    4    5 ar
     9    4   42 1
    10    5    6 ar
    11    5   43 1
    12    6    7 ar
    13    6    9 1
    14    7    8 ar
    15    7   44 1
    16    8   45 1
    17    9   19 1
    18    9   10 2
    19   10   11 1
    20   11   12 1
    21   11   17 1
    22   11   13 1
    23   13   24 1
    24   13   15 2
    25   14   16 1
    26   15   46 1
    27   15   16 1
    28   16   17 1
    29   17   18 1
    30   18   19 2
    31   18   20 1
    32   19   47 1
    33   20   21 1
    34   20   22 1
    35   20   23 1
    36   24   25 2
    37   24   26 am
    38   26   27 1
    39   26   48 1
    40   27   28 1
    41   27   49 1
    42   27   50 1
    43   28   29 1
    44   28   51 1
    45   28   52 1
    46   29   37 1
    47   29   30 2
    48   30   35 ar
    49   30   31 ar
    50   31   32 ar
    51   31   53 1
    52   32   33 ar
    53   32   38 1
    54   33   34 ar
    55   33   54 1
    56   34   35 ar
    57   34   55 1
    58   35   36 2
    59   36   37 1
    60   36   58 1
    61   37   56 1
    62   37   57 1
@<TRIPOS>MOLECULE
ZINC08781575
   57    60     0     0     0
SMALL
USER_CHARGES
ethyl 4-[4-[3-chloro-5-(trifluoromethyl)-2-pyridyl]piperazin-1-yl]-1-methyl-2-oxo-quinoline-3-carboxylate
@<TRIPOS>ATOM
      1 C1          6.4994   -7.0399   -1.1102 C.3       1 <0>        -0.1544
      2 C2          5.3264   -6.0598   -1.0437 C.3       1 <0>         0.0661
      3 O1          4.0766   -6.7950   -1.1182 O.3       1 <0>        -0.3292
      4 C3          2.9380   -6.0735   -1.0724 C.2       1 <0>         0.5270
      5 O2          2.9892   -4.8624   -0.9728 O.2       1 <0>        -0.4917
      6 C4          1.6398   -6.7484   -1.1426 C.2       1 <0>        -0.1945
      7 C5          0.4536   -6.0044   -1.2090 C.2       1 <0>         0.2591
      8 C6         -0.8193   -6.7328   -1.2844 C.ar      1 <0>        -0.1730
      9 C7         -2.0323   -6.0400   -1.3588 C.ar      1 <0>        -0.0716
     10 C8         -3.2075   -6.7329   -1.4287 C.ar      1 <0>        -0.1438
     11 C9         -3.2076   -8.1206   -1.4265 C.ar      1 <0>        -0.0439
     12 C10        -2.0242   -8.8229   -1.3543 C.ar      1 <0>        -0.1645
     13 C11        -0.8139   -8.1381   -1.2818 C.ar      1 <0>         0.2169
     14 N1          0.3752   -8.8354   -1.2099 N.am      1 <0>        -0.5219
     15 C12         1.5612   -8.2080   -1.1397 C.2       1 <0>         0.5435
     16 O3          2.5855   -8.8646   -1.0781 O.2       1 <0>        -0.4861
     17 C13         0.3432  -10.3001   -1.2106 C.3       1 <0>         0.0578
     18 N2          0.4814   -4.6358   -1.2094 N.pl3     1 <0>        -0.4920
     19 C14        -0.0800   -4.0980   -2.4565 C.3       1 <0>         0.0496
     20 C15         0.0419   -2.5724   -2.4515 C.3       1 <0>         0.0519
     21 N3         -0.6651   -2.0309   -1.2825 N.pl3     1 <0>        -0.5047
     22 C16        -0.1037   -2.5687   -0.0354 C.3       1 <0>         0.0495
     23 C17        -0.2256   -4.0944   -0.0404 C.3       1 <0>         0.0523
     24 C18        -0.6368   -0.6406   -1.2829 C.ar      1 <0>         0.3801
     25 C19        -1.8244    0.0738   -1.4180 C.ar      1 <0>        -0.0364
     26 C20        -1.7811    1.4569   -1.4162 C.ar      1 <0>         0.0744
     27 C21        -0.5479    2.0811   -1.2790 C.ar      1 <0>        -0.1906
     28 C22         0.5894    1.3102   -1.1494 C.ar      1 <0>         0.2066
     29 C23        -0.4528    3.5850   -1.2713 C.3       1 <0>         0.5282
     30 F1          0.8846    3.9670   -1.1214 F         1 <0>        -0.1588
     31 F2         -0.9496    4.0899   -2.4777 F         1 <0>        -0.1505
     32 F3         -1.2053    4.0944   -0.2075 F         1 <0>        -0.1505
     33 Cl1        -3.3382   -0.7591   -1.5868 Cl        1 <0>         0.0681
     34 H1          6.4584   -7.5924   -2.0489 H         1 <0>         0.0683
     35 H2          7.4377   -6.4879   -1.0543 H         1 <0>         0.0808
     36 H3          6.4379   -7.7375   -0.2750 H         1 <0>         0.0691
     37 H4          5.3880   -5.3622   -1.8789 H         1 <0>         0.0669
     38 H5          5.3675   -5.5072   -0.1050 H         1 <0>         0.0676
     39 H6         -2.0396   -4.9600   -1.3613 H         1 <0>         0.1414
     40 H7         -4.1433   -6.1968   -1.4865 H         1 <0>         0.1359
     41 H8         -4.1442   -8.6554   -1.4822 H         1 <0>         0.1408
     42 H9         -2.0354   -9.9029   -1.3533 H         1 <0>         0.1457
     43 H10         0.3968  -10.6642   -2.2366 H         1 <0>         0.0800
     44 H11         1.1927  -10.6823   -0.6446 H         1 <0>         0.0994
     45 H12        -0.5837  -10.6435   -0.7512 H         1 <0>         0.0896
     46 H13        -1.1304   -4.3787   -2.5332 H         1 <0>         0.0784
     47 H14         0.4682   -4.5038   -3.3068 H         1 <0>         0.1068
     48 H15        -0.4000   -2.1693   -3.3627 H         1 <0>         0.1102
     49 H16         1.0941   -2.2918   -2.4023 H         1 <0>         0.0705
     50 H17         0.9468   -2.2881    0.0413 H         1 <0>         0.0695
     51 H18        -0.6519   -2.1629    0.8149 H         1 <0>         0.1102
     52 H19        -1.2777   -4.3750   -0.0897 H         1 <0>         0.0780
     53 H20         0.2164   -4.4975    0.8707 H         1 <0>         0.1073
     54 H21        -2.6857    2.0379   -1.5188 H         1 <0>         0.2024
     55 H22         1.5497    1.7918   -1.0380 H         1 <0>         0.2197
     56 N4          0.5852   -0.0500   -1.1468 N.ar      1 <0>        -0.4962
     57 H23         1.4479   -0.5979   -1.0486 H         1 <0>         0.4849
@<TRIPOS>BOND
     1    1    2 1
     2    1   34 1
     3    1   35 1
     4    1   36 1
     5    2    3 1
     6    2   37 1
     7    2   38 1
     8    3    4 1
     9    4    5 2
    10    4    6 1
    11    6   15 1
    12    6    7 2
    13    7    8 1
    14    7   18 1
    15    8   13 ar
    16    8    9 ar
    17    9   10 ar
    18    9   39 1
    19   10   11 ar
    20   10   40 1
    21   11   12 ar
    22   11   41 1
    23   12   13 ar
    24   12   42 1
    25   13   14 1
    26   14   15 am
    27   14   17 1
    28   15   16 2
    29   17   43 1
    30   17   44 1
    31   17   45 1
    32   18   23 1
    33   18   19 1
    34   19   20 1
    35   19   46 1
    36   19   47 1
    37   20   21 1
    38   20   48 1
    39   20   49 1
    40   21   22 1
    41   21   24 1
    42   22   23 1
    43   22   50 1
    44   22   51 1
    45   23   52 1
    46   23   53 1
    47   24   25 ar
    48   24   56 ar
    49   25   26 ar
    50   25   33 1
    51   26   27 ar
    52   26   54 1
    53   27   28 ar
    54   27   29 1
    55   28   55 1
    56   28   56 ar
    57   29   30 1
    58   29   31 1
    59   29   32 1
    60   56   57 1
@<TRIPOS>MOLECULE
ZINC14744517
   72    76     0     0     0
SMALL
USER_CHARGES
8-[(2R)-3-(1,3-benzodioxol-5-yl)-2-methyl-propyl]-1-[2-(4-methoxyphenyl)ethyl]-3-methyl-1,3,8-triazaspiro[4.5]decane-2,4-dione
@<TRIPOS>ATOM
      1 C1          0.7491    3.1329    3.3012 C.3       1 <0>        -0.1742
      2 C2          0.3292    1.6752    3.5003 C.3       1 <0>        -0.1142
      3 H1         -0.7489    1.6253    3.6531 H         1 <0>         0.0985
      4 C3          1.0449    1.1010    4.7247 C.3       1 <0>        -0.0646
      5 C4          0.5793    1.8227    5.9630 C.ar      1 <0>        -0.0895
      6 C5         -0.5127    1.3504    6.6672 C.ar      1 <0>        -0.1032
      7 C6         -0.9432    2.0087    7.8039 C.ar      1 <0>        -0.0980
      8 C7         -0.2808    3.1446    8.2402 C.ar      1 <0>         0.0409
      9 C8          0.8192    3.6204    7.5309 C.ar      1 <0>         0.0372
     10 C9          1.2486    2.9523    6.3956 C.ar      1 <0>        -0.0967
     11 O1          1.2911    4.7383    8.1560 O.3       1 <0>        -0.3069
     12 C10         0.7237    4.7075    9.4790 C.3       1 <0>         0.2124
     13 O2         -0.4980    3.9644    9.3098 O.3       1 <0>        -0.3054
     14 C11         0.7069    0.8618    2.2608 C.3       1 <0>        -0.0069
     15 C12         0.4285    0.7478   -0.1414 C.3       1 <0>        -0.0199
     16 C13        -0.2981    1.3834   -1.3303 C.3       1 <0>        -0.1410
     17 C14        -1.7996    1.1584   -1.1827 C.3       1 <0>         0.1105
     18 C15        -2.2937    1.7111    0.1505 C.3       1 <0>        -0.1399
     19 C16        -1.5022    1.0649    1.2912 C.3       1 <0>        -0.0247
     20 C17        -2.5459    1.7983   -2.3300 C.2       1 <0>         0.5336
     21 O3         -2.5711    2.9740   -2.6245 O.2       1 <0>        -0.4436
     22 N1         -3.1782    0.7849   -2.9577 N.am      1 <0>        -0.5740
     23 C18        -2.9327   -0.3909   -2.3666 C.2       1 <0>         0.7012
     24 O4         -3.3913   -1.4490   -2.7502 O.2       1 <0>        -0.5097
     25 N2         -2.1205   -0.2695   -1.2990 N.am      1 <0>        -0.6248
     26 C19        -1.6496   -1.3487   -0.4273 C.3       1 <0>         0.1377
     27 C20        -0.7259   -2.2770   -1.2184 C.3       1 <0>        -0.0999
     28 C21        -0.2113   -3.3654   -0.3120 C.ar      1 <0>        -0.1360
     29 C22         0.9656   -3.1802    0.3896 C.ar      1 <0>        -0.0834
     30 C23         1.4364   -4.1742    1.2256 C.ar      1 <0>        -0.2075
     31 C24         0.7332   -5.3634    1.3520 C.ar      1 <0>         0.1379
     32 C25        -0.4444   -5.5489    0.6426 C.ar      1 <0>        -0.1439
     33 C26        -0.9140   -4.5497   -0.1877 C.ar      1 <0>        -0.0651
     34 O5          1.1970   -6.3447    2.1698 O.3       1 <0>        -0.3132
     35 C27         2.4157   -6.0844    2.8691 C.3       1 <0>         0.0257
     36 C28        -4.0280    0.9509   -4.1394 C.3       1 <0>         0.0817
     37 H2          1.8272    3.1829    3.1485 H         1 <0>         0.0759
     38 H3          0.2393    3.5420    2.4290 H         1 <0>         0.0516
     39 H4          0.4800    3.7124    4.1843 H         1 <0>         0.0894
     40 H5          0.8153    0.0393    4.8150 H         1 <0>         0.0886
     41 H6          2.1210    1.2317    4.6109 H         1 <0>         0.0879
     42 H7         -1.0307    0.4655    6.3282 H         1 <0>         0.1375
     43 H8         -1.7966    1.6375    8.3521 H         1 <0>         0.1397
     44 H9          2.1041    3.3164    5.8461 H         1 <0>         0.1356
     45 H10         1.3917    4.1939   10.1704 H         1 <0>         0.0908
     46 H11         0.5121    5.7179    9.8286 H         1 <0>         0.1382
     47 H12         0.4892   -0.1916    2.4372 H         1 <0>         0.1356
     48 H13         1.7707    0.9837    2.0565 H         1 <0>         0.1362
     49 H14         0.2453   -0.3267   -0.1357 H         1 <0>         0.1420
     50 H15         1.4991    0.9335   -0.2284 H         1 <0>         0.1443
     51 H16        -0.0911    2.4533   -1.3535 H         1 <0>         0.1175
     52 H17         0.0496    0.9254   -2.2563 H         1 <0>         0.1253
     53 H18        -2.1482    2.7911    0.1729 H         1 <0>         0.1170
     54 H19        -3.3533    1.4842    0.2681 H         1 <0>         0.1256
     55 H20        -1.8320    1.4806    2.2434 H         1 <0>         0.1451
     56 H21        -1.6716   -0.0119    1.2867 H         1 <0>         0.1458
     57 H22        -1.1032   -0.9235    0.4145 H         1 <0>         0.0855
     58 H23        -2.5038   -1.9155   -0.0570 H         1 <0>         0.0983
     59 H24        -1.2800   -2.7235   -2.0441 H         1 <0>         0.0972
     60 H25         0.1141   -1.7046   -1.6120 H         1 <0>         0.0754
     61 H26         1.5149   -2.2560    0.2875 H         1 <0>         0.1165
     62 H27         2.3535   -4.0273    1.7768 H         1 <0>         0.1309
     63 H28        -0.9935   -6.4739    0.7391 H         1 <0>         0.1366
     64 H29        -1.8310   -4.6935   -0.7399 H         1 <0>         0.1342
     65 H30         2.6727   -6.9464    3.4847 H         1 <0>         0.1059
     66 H31         3.2145   -5.8999    2.1508 H         1 <0>         0.0580
     67 H32         2.2896   -5.2083    3.5052 H         1 <0>         0.0561
     68 H33        -3.4207    0.8576   -5.0397 H         1 <0>         0.0809
     69 H34        -4.8013    0.1827   -4.1416 H         1 <0>         0.0973
     70 H35        -4.4944    1.9358   -4.1162 H         1 <0>         0.0944
     71 N3         -0.0660    1.3666    1.1074 N.4       1 <0>        -0.3964
     72 H36         0.0548    2.3843    1.0449 H         1 <0>         0.4283
@<TRIPOS>BOND
     1    1    2 1
     2    1   37 1
     3    1   38 1
     4    1   39 1
     5    2    3 1
     6    2    4 1
     7    2   14 1
     8    4    5 1
     9    4   40 1
    10    4   41 1
    11    5   10 ar
    12    5    6 ar
    13    6    7 ar
    14    6   42 1
    15    7    8 ar
    16    7   43 1
    17    8   13 1
    18    8    9 ar
    19    9   10 ar
    20    9   11 1
    21   10   44 1
    22   11   12 1
    23   12   13 1
    24   12   45 1
    25   12   46 1
    26   14   47 1
    27   14   48 1
    28   14   71 1
    29   15   16 1
    30   15   49 1
    31   15   50 1
    32   15   71 1
    33   16   17 1
    34   16   51 1
    35   16   52 1
    36   17   25 1
    37   17   18 1
    38   17   20 1
    39   18   19 1
    40   18   53 1
    41   18   54 1
    42   19   55 1
    43   19   56 1
    44   19   71 1
    45   20   21 2
    46   20   22 am
    47   22   23 am
    48   22   36 1
    49   23   24 2
    50   23   25 am
    51   25   26 1
    52   26   27 1
    53   26   57 1
    54   26   58 1
    55   27   28 1
    56   27   59 1
    57   27   60 1
    58   28   33 ar
    59   28   29 ar
    60   29   30 ar
    61   29   61 1
    62   30   31 ar
    63   30   62 1
    64   31   32 ar
    65   31   34 1
    66   32   33 ar
    67   32   63 1
    68   33   64 1
    69   34   35 1
    70   35   65 1
    71   35   66 1
    72   35   67 1
    73   36   68 1
    74   36   69 1
    75   36   70 1
    76   71   72 1
@<TRIPOS>MOLECULE
ZINC35486561
   68    72     0     0     0
SMALL
USER_CHARGES

@<TRIPOS>ATOM
      1 C1         -0.0184    1.5028    0.0103 C.3       1 <0>        -0.1199
      2 C2          0.0021   -0.0041    0.0020 C.ar      1 <0>        -0.0985
      3 C3          0.0058   -0.6891   -1.2051 C.ar      1 <0>        -0.0512
      4 C4          0.0211   -2.0654   -1.2351 C.ar      1 <0>        -0.1264
      5 C5          0.0348   -2.7901   -0.0434 C.ar      1 <0>         0.1294
      6 C6          0.0374   -2.0861    1.1720 C.ar      1 <0>        -0.2064
      7 C7          0.0226   -0.6916    1.1835 C.ar      1 <0>        -0.0350
      8 C8          0.0678   -2.8487    2.4456 C.2       1 <0>         0.4564
      9 O1         -0.0967   -2.3321    3.5366 O.2       1 <0>        -0.4292
     10 C9          0.3141   -4.2833    2.2649 C.2       1 <0>        -0.2440
     11 C10         0.2940   -4.8502    1.0224 C.2       1 <0>         0.0895
     12 O2          0.0426   -4.1415   -0.0959 O.3       1 <0>        -0.1786
     13 C11         0.5826   -6.2880    1.1656 C.2       1 <0>         0.5778
     14 O3          0.6426   -7.0806    0.2468 O.2       1 <0>        -0.4722
     15 N1          0.7704   -6.5960    2.4651 N.am      1 <0>        -0.5988
     16 C12         0.6143   -5.3623    3.2530 C.3       1 <0>         0.2361
     17 H1         -0.2112   -5.4677    3.9570 H         1 <0>         0.1289
     18 C13         1.8911   -5.0513    3.9905 C.ar      1 <0>        -0.1065
     19 C14         3.1118   -5.2807    3.3832 C.ar      1 <0>        -0.1189
     20 C15         4.2859   -4.9970    4.0555 C.ar      1 <0>        -0.1808
     21 C16         4.2410   -4.4812    5.3408 C.ar      1 <0>         0.1197
     22 C17         3.0124   -4.2499    5.9518 C.ar      1 <0>         0.1143
     23 C18         1.8392   -4.5319    5.2705 C.ar      1 <0>        -0.1425
     24 O4          2.9632   -3.7437    7.2131 O.3       1 <0>        -0.2981
     25 C19         1.6674   -3.5321    7.7771 C.3       1 <0>         0.0216
     26 O5          5.3952   -4.2020    6.0037 O.3       1 <0>        -0.2906
     27 C20         6.6191   -4.4652    5.3147 C.3       1 <0>         0.1042
     28 C21         7.7826   -4.0971    6.1989 C.ar      1 <0>        -0.1061
     29 C22         8.3002   -2.8158    6.1623 C.ar      1 <0>        -0.0927
     30 C23         9.3675   -2.4781    6.9733 C.ar      1 <0>        -0.1197
     31 C24         9.9168   -3.4215    7.8213 C.ar      1 <0>        -0.1029
     32 C25         9.3985   -4.7025    7.8586 C.ar      1 <0>        -0.1224
     33 C26         8.3285   -5.0390    7.0506 C.ar      1 <0>        -0.0953
     34 C27         1.0759   -7.9255    2.9992 C.3       1 <0>         0.1228
     35 C28         2.5928   -8.1204    3.0453 C.3       1 <0>        -0.0533
     36 N2          2.8991   -9.4536    3.5808 N.4       1 <0>        -0.3822
     37 C29         4.3478   -9.6872    3.5138 C.3       1 <0>        -0.0470
     38 C30         2.4544   -9.5338    4.9786 C.3       1 <0>        -0.0555
     39 H2          1.0042    1.8801    0.0026 H         1 <0>         0.0787
     40 H3         -0.5455    1.8639   -0.8728 H         1 <0>         0.0756
     41 H4         -0.5286    1.8543    0.9071 H         1 <0>         0.0741
     42 H5         -0.0039   -0.1355   -2.1324 H         1 <0>         0.1475
     43 H6          0.0222   -2.5844   -2.1822 H         1 <0>         0.1502
     44 H7          0.0237   -0.1571    2.1219 H         1 <0>         0.1463
     45 H8          3.1481   -5.6827    2.3815 H         1 <0>         0.1217
     46 H9          5.2382   -5.1778    3.5791 H         1 <0>         0.1406
     47 H10         0.8844   -4.3497    5.7411 H         1 <0>         0.1458
     48 H11         1.1309   -4.4799    7.8208 H         1 <0>         0.0563
     49 H12         1.7710   -3.1265    8.7836 H         1 <0>         0.1078
     50 H13         1.1118   -2.8283    7.1572 H         1 <0>         0.0629
     51 H14         6.6743   -5.5245    5.0638 H         1 <0>         0.0683
     52 H15         6.6559   -3.8730    4.4004 H         1 <0>         0.0732
     53 H16         7.8710   -2.0787    5.4997 H         1 <0>         0.1243
     54 H17         9.7723   -1.4773    6.9442 H         1 <0>         0.1288
     55 H18        10.7510   -3.1579    8.4545 H         1 <0>         0.1281
     56 H19         9.8279   -5.4397    8.5209 H         1 <0>         0.1273
     57 H20         7.9213   -6.0388    7.0825 H         1 <0>         0.1206
     58 H21         0.6673   -8.0154    4.0057 H         1 <0>         0.1141
     59 H22         0.6312   -8.6859    2.3573 H         1 <0>         0.1151
     60 H23         3.0014   -8.0305    2.0388 H         1 <0>         0.1372
     61 H24         3.0375   -7.3600    3.6872 H         1 <0>         0.1470
     62 H25         4.8655   -8.9309    4.1038 H         1 <0>         0.1221
     63 H26         4.5751  -10.6764    3.9112 H         1 <0>         0.1287
     64 H27         4.6778   -9.6276    2.4766 H         1 <0>         0.1249
     65 H28         1.3794   -9.3605    5.0284 H         1 <0>         0.1242
     66 H29         2.6816  -10.5230    5.3760 H         1 <0>         0.1295
     67 H30         2.9720   -8.7775    5.5686 H         1 <0>         0.1243
     68 H31         2.4199  -10.1537    3.0347 H         1 <0>         0.4286
@<TRIPOS>BOND
     1    1    2 1
     2    1   39 1
     3    1   40 1
     4    1   41 1
     5    2    7 ar
     6    2    3 ar
     7    3    4 ar
     8    3   42 1
     9    4    5 ar
    10    4   43 1
    11    5   12 1
    12    5    6 ar
    13    6    7 ar
    14    6    8 1
    15    7   44 1
    16    8    9 2
    17    8   10 1
    18   10   16 1
    19   10   11 2
    20   11   12 1
    21   11   13 1
    22   13   14 2
    23   13   15 am
    24   15   16 1
    25   15   34 1
    26   16   17 1
    27   16   18 1
    28   18   23 ar
    29   18   19 ar
    30   19   20 ar
    31   19   45 1
    32   20   21 ar
    33   20   46 1
    34   21   22 ar
    35   21   26 1
    36   22   23 ar
    37   22   24 1
    38   23   47 1
    39   24   25 1
    40   25   48 1
    41   25   49 1
    42   25   50 1
    43   26   27 1
    44   27   28 1
    45   27   51 1
    46   27   52 1
    47   28   33 ar
    48   28   29 ar
    49   29   30 ar
    50   29   53 1
    51   30   31 ar
    52   30   54 1
    53   31   32 ar
    54   31   55 1
    55   32   33 ar
    56   32   56 1
    57   33   57 1
    58   34   35 1
    59   34   58 1
    60   34   59 1
    61   35   36 1
    62   35   60 1
    63   35   61 1
    64   36   37 1
    65   36   38 1
    66   36   68 1
    67   37   62 1
    68   37   63 1
    69   37   64 1
    70   38   65 1
    71   38   66 1
    72   38   67 1
@<TRIPOS>MOLECULE
ZINC39325513
   56    60     0     0     0
SMALL
USER_CHARGES

@<TRIPOS>ATOM
      1 C1          4.9552   -1.4986   -3.4675 C.ar      1 <0>        -0.1075
      2 C2          5.6629   -0.4761   -2.8638 C.ar      1 <0>        -0.1125
      3 C3          5.8053   -0.4520   -1.4890 C.ar      1 <0>        -0.0897
      4 C4          5.2396   -1.4501   -0.7179 C.ar      1 <0>        -0.1206
      5 C5          4.5310   -2.4721   -1.3216 C.ar      1 <0>        -0.1095
      6 C6          4.3899   -2.4970   -2.6965 C.ar      1 <0>        -0.1223
      7 C7          5.3956   -1.4244    0.7808 C.3       1 <0>         0.1690
      8 N1          4.2130   -0.8052    1.3843 N.pl3     1 <0>        -0.9854
      9 C8          2.9710   -1.5712    1.5145 C.3       1 <0>         0.1211
     10 C9          3.2046   -2.7683    2.4382 C.3       1 <0>        -0.1618
     11 H1          4.1029   -3.2812    2.0944 H         1 <0>         0.1842
     12 C10         2.0350   -3.7182    2.2729 C.2       1 <0>         0.1279
     13 C11         1.3157   -4.0239    3.3862 C.ar      1 <0>        -0.1679
     14 C12         0.1704   -4.9318    3.3121 C.ar      1 <0>        -0.0030
     15 C13        -0.5288   -5.2185    4.4434 C.ar      1 <0>         0.0191
     16 C14        -0.1668   -4.6576    5.6848 C.ar      1 <0>         0.2844
     17 C15         0.9031   -3.7937    5.8064 C.ar      1 <0>        -0.2498
     18 C16         1.6764   -3.4438    4.6931 C.ar      1 <0>         0.3646
     19 N2          2.7071   -2.6067    4.8340 N.am      1 <0>        -0.5949
     20 C17         3.4771   -2.2363    3.8270 C.2       1 <0>         0.5028
     21 O1          4.4026   -1.4695    4.0167 O.2       1 <0>        -0.3992
     22 O2         -0.8727   -4.9649    6.8062 O.3       1 <0>        -0.2665
     23 C18        -2.1734   -5.5290    6.6176 C.3       1 <0>         0.0066
     24 C19        -2.0678   -6.6432    5.5679 C.3       1 <0>         0.0140
     25 O3         -1.5944   -6.0637    4.3481 O.3       1 <0>        -0.2878
     26 S1          4.2801    0.7605    1.9194 S.o2      1 <0>         2.6788
     27 O4          5.2360    0.7900    2.9703 O.2       1 <0>        -0.9263
     28 O5          4.3926    1.5801    0.7640 O.2       1 <0>        -0.9238
     29 C20         2.7189    1.1294    2.6482 C.ar      1 <0>        -0.6786
     30 C21         2.6392    1.4351    3.9940 C.ar      1 <0>        -0.0078
     31 C22         1.4145    1.7245    4.5659 C.ar      1 <0>        -0.1328
     32 C23         0.2686    1.7083    3.7924 C.ar      1 <0>        -0.0471
     33 C24         0.3470    1.4028    2.4470 C.ar      1 <0>        -0.1249
     34 C25         1.5735    1.1186    1.8727 C.ar      1 <0>         0.0326
     35 Cl1         1.6736    0.7412    0.1811 Cl        1 <0>        -0.0258
     36 H2          4.8402   -1.5150   -4.5413 H         1 <0>         0.1251
     37 H3          6.1050    0.3037   -3.4662 H         1 <0>         0.1271
     38 H4          6.3589    0.3465   -1.0174 H         1 <0>         0.1250
     39 H5          4.0893   -3.2521   -0.7192 H         1 <0>         0.1156
     40 H6          3.8366   -3.2957   -3.1681 H         1 <0>         0.1239
     41 H7          5.5019   -2.4435    1.1526 H         1 <0>         0.0930
     42 H8          6.2821   -0.8473    1.0439 H         1 <0>         0.0993
     43 H9          2.1934   -0.9338    1.9354 H         1 <0>         0.0988
     44 H10         2.6581   -1.9257    0.5324 H         1 <0>         0.1188
     45 H11         1.7825   -4.1355    1.3093 H         1 <0>         0.2022
     46 H12        -0.1173   -5.3700    2.3679 H         1 <0>         0.1869
     47 H13         1.1471   -3.3817    6.7745 H         1 <0>         0.1811
     48 H14        -2.5339   -5.9440    7.5588 H         1 <0>         0.1530
     49 H15        -2.8608   -4.7587    6.2679 H         1 <0>         0.1069
     50 H16        -1.3671   -7.4051    5.9094 H         1 <0>         0.0961
     51 H17        -3.0485   -7.0906    5.4063 H         1 <0>         0.1490
     52 H18         3.5339    1.4476    4.5987 H         1 <0>         0.1567
     53 H19         1.3527    1.9630    5.6174 H         1 <0>         0.1459
     54 H20        -0.6880    1.9342    4.2399 H         1 <0>         0.1473
     55 H21        -0.5482    1.3899    1.8430 H         1 <0>         0.1498
     56 H22         2.8989   -2.2540    5.7170 H         1 <0>         0.4389
@<TRIPOS>BOND
     1    1    6 ar
     2    1    2 ar
     3    1   36 1
     4    2    3 ar
     5    2   37 1
     6    3    4 ar
     7    3   38 1
     8    4    5 ar
     9    4    7 1
    10    5    6 ar
    11    5   39 1
    12    6   40 1
    13    7    8 1
    14    7   41 1
    15    7   42 1
    16    8    9 1
    17    8   26 1
    18    9   10 1
    19    9   43 1
    20    9   44 1
    21   10   11 1
    22   10   20 1
    23   10   12 1
    24   12   13 2
    25   12   45 1
    26   13   18 ar
    27   13   14 ar
    28   14   15 ar
    29   14   46 1
    30   15   25 1
    31   15   16 ar
    32   16   17 ar
    33   16   22 1
    34   17   18 ar
    35   17   47 1
    36   18   19 2
    37   19   20 am
    38   19   56 1
    39   20   21 2
    40   22   23 1
    41   23   24 1
    42   23   48 1
    43   23   49 1
    44   24   25 1
    45   24   50 1
    46   24   51 1
    47   26   27 2
    48   26   28 2
    49   26   29 1
    50   29   34 ar
    51   29   30 ar
    52   30   31 ar
    53   30   52 1
    54   31   32 ar
    55   31   53 1
    56   32   33 ar
    57   32   54 1
    58   33   34 ar
    59   33   55 1
    60   34   35 1
@<TRIPOS>MOLECULE
ZINC63140609
   67    72     0     0     0
SMALL
USER_CHARGES

@<TRIPOS>ATOM
      1 C1         -2.1411   -1.4072    4.6624 C.3       1 <0>        -0.1523
      2 C2         -1.5820   -2.1931    3.4747 C.3       1 <0>         0.0568
      3 O1         -2.3924   -1.9550    2.3221 O.3       1 <0>        -0.3225
      4 C3         -2.0302   -2.5833    1.1727 C.ar      1 <0>         0.1505
      5 C4         -0.9209   -3.4166    1.1561 C.ar      1 <0>        -0.1862
      6 C5         -0.5552   -4.0544   -0.0131 C.ar      1 <0>        -0.0750
      7 C6         -1.2935   -3.8630   -1.1666 C.ar      1 <0>        -0.1327
      8 C7         -2.3989   -3.0329   -1.1528 C.ar      1 <0>        -0.1050
      9 C8         -2.7722   -2.3971    0.0157 C.ar      1 <0>        -0.0780
     10 C9         -3.9809   -1.4972    0.0315 C.3       1 <0>         0.2094
     11 H1         -3.8019   -0.6498    0.6933 H         1 <0>         0.1168
     12 C10        -4.2739   -0.9963   -1.3856 C.3       1 <0>         0.0697
     13 H2         -4.2758   -1.8269   -2.0915 H         1 <0>         0.1797
     14 C11        -5.6422   -0.3285   -1.3408 C.2       1 <0>         0.0587
     15 C12        -5.4729    0.9053   -1.8010 C.ar      1 <0>        -0.1513
     16 C13        -6.4290    1.9936   -2.0609 C.ar      1 <0>         0.0012
     17 C14        -5.9016    3.1554   -2.5299 C.ar      1 <0>        -0.1569
     18 C15        -4.5354    3.3412   -2.7628 C.ar      1 <0>         0.0575
     19 C16        -3.5861    2.3937   -2.5567 C.ar      1 <0>        -0.2051
     20 C17        -4.0191    1.1265   -2.0689 C.ar      1 <0>         0.3344
     21 N1         -3.3245    0.0347   -1.8086 N.pl3     1 <0>        -0.5756
     22 C18        -6.8605   -1.0195   -0.7787 C.3       1 <0>        -0.0858
     23 C19        -6.4534   -1.5780    0.5973 C.3       1 <0>         0.1355
     24 H3         -6.3383   -0.7415    1.2865 H         1 <0>         0.1254
     25 N2         -5.1646   -2.2550    0.4956 N.am      1 <0>        -0.6022
     26 C20        -5.0003   -3.5467    0.8037 C.2       1 <0>         0.5151
     27 O2         -3.8931   -4.0223    0.6660 O.2       1 <0>        -0.4732
     28 C21        -6.0827   -4.4438    1.3054 C.3       1 <0>         0.0968
     29 N3         -7.3545   -3.7521    1.4334 N.am      1 <0>        -0.5897
     30 C22        -7.5317   -2.4707    1.1163 C.2       1 <0>         0.5209
     31 O3         -8.6387   -1.9975    1.2633 O.2       1 <0>        -0.5119
     32 C23        -8.5056   -4.5067    1.9351 C.3       1 <0>         0.1538
     33 C24        -8.5644   -4.3939    3.4367 C.ar      1 <0>        -0.1603
     34 C25        -7.9018   -5.3168    4.2247 C.ar      1 <0>        -0.0654
     35 C26        -7.9546   -5.2158    5.6014 C.ar      1 <0>        -0.1550
     36 C27        -8.6727   -4.1869    6.1933 C.ar      1 <0>         0.1405
     37 C28        -9.3363   -3.2619    5.4005 C.ar      1 <0>        -0.2119
     38 C29        -9.2762   -3.3642    4.0241 C.ar      1 <0>        -0.0511
     39 O4         -8.7265   -4.0857    7.5474 O.3       1 <0>        -0.3154
     40 C30        -9.4845   -3.0013    8.0873 C.3       1 <0>         0.0255
     41 H4         -1.5229   -1.5888    5.5416 H         1 <0>         0.0839
     42 H5         -2.1360   -0.3426    4.4284 H         1 <0>         0.0648
     43 H6         -3.1625   -1.7301    4.8634 H         1 <0>         0.0649
     44 H7         -0.5605   -1.8702    3.2738 H         1 <0>         0.0645
     45 H8         -1.5871   -3.2577    3.7088 H         1 <0>         0.0655
     46 H9         -0.3438   -3.5661    2.0567 H         1 <0>         0.1294
     47 H10         0.3084   -4.7029   -0.0266 H         1 <0>         0.1275
     48 H11        -1.0059   -4.3626   -2.0799 H         1 <0>         0.1254
     49 H12        -2.9737   -2.8847   -2.0551 H         1 <0>         0.1147
     50 H13        -7.4887    1.8758   -1.8891 H         1 <0>         0.1726
     51 H14        -6.5724    3.9770   -2.7335 H         1 <0>         0.1569
     52 H15        -4.2140    4.3039   -3.1321 H         1 <0>         0.1592
     53 H16        -2.5432    2.5920   -2.7550 H         1 <0>         0.1700
     54 H17        -7.6757   -0.3049   -0.6651 H         1 <0>         0.1386
     55 H18        -7.1649   -1.8333   -1.4367 H         1 <0>         0.1306
     56 H19        -6.2013   -5.2767    0.6124 H         1 <0>         0.1215
     57 H20        -5.7937   -4.8357    2.2806 H         1 <0>         0.1187
     58 H21        -9.4213   -4.1019    1.5042 H         1 <0>         0.1060
     59 H22        -8.4039   -5.5547    1.6532 H         1 <0>         0.0964
     60 H23        -7.3429   -6.1176    3.7634 H         1 <0>         0.1284
     61 H24        -7.4374   -5.9374    6.2165 H         1 <0>         0.1335
     62 H25        -9.8961   -2.4600    5.8588 H         1 <0>         0.1303
     63 H26        -9.7890   -2.6418    3.4064 H         1 <0>         0.1323
     64 H27        -9.0662   -2.0568    7.7394 H         1 <0>         0.0561
     65 H28       -10.5205   -3.0829    7.7584 H         1 <0>         0.0587
     66 H29        -9.4451   -3.0370    9.1760 H         1 <0>         0.1045
     67 H30        -2.3630   -0.0733   -1.8766 H         1 <0>         0.4594
@<TRIPOS>BOND
     1    1    2 1
     2    1   41 1
     3    1   42 1
     4    1   43 1
     5    2    3 1
     6    2   44 1
     7    2   45 1
     8    3    4 1
     9    4    9 ar
    10    4    5 ar
    11    5    6 ar
    12    5   46 1
    13    6    7 ar
    14    6   47 1
    15    7    8 ar
    16    7   48 1
    17    8    9 ar
    18    8   49 1
    19    9   10 1
    20   10   11 1
    21   10   25 1
    22   10   12 1
    23   12   13 1
    24   12   21 1
    25   12   14 1
    26   14   15 2
    27   14   22 1
    28   15   20 ar
    29   15   16 ar
    30   16   17 ar
    31   16   50 1
    32   17   18 ar
    33   17   51 1
    34   18   19 ar
    35   18   52 1
    36   19   20 ar
    37   19   53 1
    38   20   21 2
    39   21   67 1
    40   22   23 1
    41   22   54 1
    42   22   55 1
    43   23   24 1
    44   23   30 1
    45   23   25 1
    46   25   26 am
    47   26   27 2
    48   26   28 1
    49   28   29 1
    50   28   56 1
    51   28   57 1
    52   29   30 am
    53   29   32 1
    54   30   31 2
    55   32   33 1
    56   32   58 1
    57   32   59 1
    58   33   38 ar
    59   33   34 ar
    60   34   35 ar
    61   34   60 1
    62   35   36 ar
    63   35   61 1
    64   36   37 ar
    65   36   39 1
    66   37   38 ar
    67   37   62 1
    68   38   63 1
    69   39   40 1
    70   40   64 1
    71   40   65 1
    72   40   66 1
@<TRIPOS>MOLECULE
ZINC11968398
   73    77     0     0     0
SMALL
USER_CHARGES
N-[[5,8-dimethoxy-2-(p-tolyl)-3-quinolyl]methyl]-N-(2-dimethylaminoethyl)-1,3-benzodioxole-5-carboxamide
@<TRIPOS>ATOM
      1 C1          6.5606   -8.8246    4.2081 C.3       1 <0>        -0.1208
      2 C2          6.8183   -7.4320    4.7234 C.ar      1 <0>        -0.0535
      3 C3          7.6718   -7.2408    5.7951 C.ar      1 <0>        -0.1178
      4 C4          7.9111   -5.9679    6.2715 C.ar      1 <0>        -0.0756
      5 C5          7.2909   -4.8738    5.6706 C.ar      1 <0>        -0.0599
      6 C6          6.4274   -5.0730    4.5946 C.ar      1 <0>        -0.0763
      7 C7          6.2000   -6.3499    4.1231 C.ar      1 <0>        -0.1016
      8 C8          7.5441   -3.5035    6.1778 C.ar      1 <0>         0.2174
      9 C9          8.0403   -2.5277    5.2995 C.ar      1 <0>        -0.1573
     10 C10         8.2723   -1.2626    5.7527 C.ar      1 <0>        -0.0384
     11 C11         8.0069   -0.9792    7.1058 C.ar      1 <0>        -0.0907
     12 C12         8.2248    0.3062    7.6383 C.ar      1 <0>         0.1062
     13 C13         7.9536    0.5454    8.9666 C.ar      1 <0>        -0.1675
     14 C14         7.4669   -0.4686    9.7868 C.ar      1 <0>        -0.1683
     15 C15         7.2462   -1.7244    9.2990 C.ar      1 <0>         0.1293
     16 C16         7.5118   -2.0091    7.9437 C.ar      1 <0>         0.1482
     17 N1          7.3035   -3.2308    7.4458 N.ar      1 <0>        -0.4342
     18 O1          6.7704   -2.6991   10.1188 O.3       1 <0>        -0.2915
     19 C17         6.5240   -2.3393   11.4796 C.3       1 <0>         0.0210
     20 O2          8.6996    1.3034    6.8465 O.3       1 <0>        -0.3167
     21 C18         8.8951    2.5800    7.4581 C.3       1 <0>         0.0245
     22 C19         8.3100   -2.8753    3.8582 C.3       1 <0>         0.1484
     23 N2          9.6546   -3.4440    3.7364 N.am      1 <0>        -0.6045
     24 C20        10.8091   -2.5614    3.5510 C.3       1 <0>         0.0786
     25 C21        11.5838   -2.4519    4.8659 C.3       1 <0>        -0.0725
     26 C22        12.6305   -0.3181    4.4032 C.3       1 <0>        -0.0485
     27 C23        13.7899   -1.9708    5.7400 C.3       1 <0>        -0.0486
     28 C24         9.8295   -4.7791    3.7949 C.2       1 <0>         0.5595
     29 O3          8.8871   -5.5244    3.6088 O.2       1 <0>        -0.4569
     30 C25        11.1652   -5.3364    4.0850 C.ar      1 <0>        -0.1187
     31 C26        12.2985   -4.5252    3.9886 C.ar      1 <0>        -0.1636
     32 C27        13.5443   -5.0470    4.2601 C.ar      1 <0>        -0.1315
     33 C28        13.6789   -6.3786    4.6298 C.ar      1 <0>         0.0732
     34 C29        12.5508   -7.1941    4.7280 C.ar      1 <0>         0.0427
     35 C30        11.2992   -6.6765    4.4570 C.ar      1 <0>        -0.0320
     36 O4         12.9491   -8.4448    5.1040 O.3       1 <0>        -0.2956
     37 C31        14.2792   -8.2816    5.6307 C.3       1 <0>         0.2105
     38 O5         14.7797   -7.1197    4.9436 O.3       1 <0>        -0.2995
     39 H1          5.7061   -9.2533    4.7316 H         1 <0>         0.0726
     40 H2          6.3489   -8.7833    3.1397 H         1 <0>         0.0680
     41 H3          7.4406   -9.4443    4.3805 H         1 <0>         0.0661
     42 H4          8.1514   -8.0894    6.2601 H         1 <0>         0.1189
     43 H5          8.5773   -5.8199    7.1085 H         1 <0>         0.1123
     44 H6          5.9405   -4.2293    4.1283 H         1 <0>         0.1176
     45 H7          5.5347   -6.5051    3.2867 H         1 <0>         0.1217
     46 H8          8.6504   -0.4978    5.0905 H         1 <0>         0.1457
     47 H9          8.1201    1.5305    9.3768 H         1 <0>         0.1380
     48 H10         7.2610   -0.2585   10.8260 H         1 <0>         0.1416
     49 H11         6.1480   -3.2066   12.0224 H         1 <0>         0.1073
     50 H12         7.4516   -1.9975   11.9388 H         1 <0>         0.0575
     51 H13         5.7844   -1.5395   11.5158 H         1 <0>         0.0593
     52 H14         9.6128    2.4864    8.2732 H         1 <0>         0.0578
     53 H15         9.2761    3.2832    6.7175 H         1 <0>         0.1048
     54 H16         7.9456    2.9443    7.8502 H         1 <0>         0.0613
     55 H17         8.2396   -1.9749    3.2480 H         1 <0>         0.0972
     56 H18         7.5750   -3.6041    3.5166 H         1 <0>         0.1236
     57 H19        11.4600   -2.9719    2.7790 H         1 <0>         0.1128
     58 H20        10.4654   -1.5723    3.2483 H         1 <0>         0.1150
     59 H21        10.9913   -1.8941    5.5912 H         1 <0>         0.1412
     60 H22        11.7857   -3.4506    5.2528 H         1 <0>         0.1594
     61 H23        12.2194    0.1325    5.3066 H         1 <0>         0.1275
     62 H24        13.5771    0.1624    4.1558 H         1 <0>         0.1275
     63 H25        11.9292   -0.1849    3.5794 H         1 <0>         0.1237
     64 H26        13.9918   -3.0372    5.8406 H         1 <0>         0.1218
     65 H27        14.7216   -1.4419    5.5391 H         1 <0>         0.1296
     66 H28        13.3510   -1.5952    6.6643 H         1 <0>         0.1270
     67 H29        12.1980   -3.4891    3.7010 H         1 <0>         0.1589
     68 H30        14.4191   -4.4181    4.1854 H         1 <0>         0.1412
     69 H31        10.4254   -7.3068    4.5323 H         1 <0>         0.1567
     70 H32        14.8911   -9.1544    5.4027 H         1 <0>         0.1443
     71 H33        14.2464   -8.1061    6.7060 H         1 <0>         0.0957
     72 N3         12.8655   -1.7633    4.6055 N.4       1 <0>        -0.3984
     73 H34        13.2877   -2.1548    3.7554 H         1 <0>         0.4272
@<TRIPOS>BOND
     1    1    2 1
     2    1   39 1
     3    1   40 1
     4    1   41 1
     5    2    7 ar
     6    2    3 ar
     7    3    4 ar
     8    3   42 1
     9    4    5 ar
    10    4   43 1
    11    5    6 ar
    12    5    8 1
    13    6    7 ar
    14    6   44 1
    15    7   45 1
    16    8   17 ar
    17    8    9 ar
    18    9   10 ar
    19    9   22 1
    20   10   11 ar
    21   10   46 1
    22   11   16 ar
    23   11   12 ar
    24   12   13 ar
    25   12   20 1
    26   13   14 ar
    27   13   47 1
    28   14   15 ar
    29   14   48 1
    30   15   16 ar
    31   15   18 1
    32   16   17 ar
    33   18   19 1
    34   19   49 1
    35   19   50 1
    36   19   51 1
    37   20   21 1
    38   21   52 1
    39   21   53 1
    40   21   54 1
    41   22   23 1
    42   22   55 1
    43   22   56 1
    44   23   24 1
    45   23   28 am
    46   24   25 1
    47   24   57 1
    48   24   58 1
    49   25   59 1
    50   25   60 1
    51   25   72 1
    52   26   61 1
    53   26   62 1
    54   26   63 1
    55   26   72 1
    56   27   64 1
    57   27   65 1
    58   27   66 1
    59   27   72 1
    60   28   29 2
    61   28   30 1
    62   30   35 ar
    63   30   31 ar
    64   31   32 ar
    65   31   67 1
    66   32   33 ar
    67   32   68 1
    68   33   38 1
    69   33   34 ar
    70   34   35 ar
    71   34   36 1
    72   35   69 1
    73   36   37 1
    74   37   38 1
    75   37   70 1
    76   37   71 1
    77   72   73 1
@<TRIPOS>MOLECULE
ZINC36637442
   68    71     0     0     0
SMALL
USER_CHARGES

@<TRIPOS>ATOM
      1 C1          0.1002    0.6854    1.5334 C.3       1 <0>        -0.1530
      2 C2         -0.0135   -0.7692    1.0727 C.3       1 <0>         0.0473
      3 O1         -1.3763   -1.0647    0.7603 O.3       1 <0>        -0.2921
      4 C3         -1.6520   -2.3252    0.3322 C.ar      1 <0>         0.2047
      5 C4         -0.6356   -3.2454    0.2245 C.ar      1 <0>        -0.2084
      6 C5         -0.8756   -4.5412   -0.2079 C.ar      1 <0>        -0.0343
      7 C6         -2.1645   -4.9178   -0.5383 C.ar      1 <0>        -0.1090
      8 C7         -3.1871   -4.0066   -0.4344 C.ar      1 <0>        -0.0920
      9 C8         -2.9854   -2.6802    0.0065 C.ar      1 <0>         0.0536
     10 N1         -4.0918   -1.9061    0.0602 N.2       1 <0>        -0.4549
     11 C9         -5.2810   -2.3520   -0.2700 C.2       1 <0>         0.3239
     12 S1         -4.9371   -4.0418   -0.7397 S.3       1 <0>        -0.0107
     13 N2         -6.4927   -1.6810   -0.2649 N.am      1 <0>        -0.5000
     14 C10        -7.7159   -2.3748   -0.6758 C.3       1 <0>         0.0437
     15 C11        -8.1377   -3.3567    0.4192 C.3       1 <0>        -0.0523
     16 N3         -9.2856   -4.1460   -0.0467 N.4       1 <0>        -0.3818
     17 C12        -9.5999   -5.1846    0.9435 C.3       1 <0>        -0.0498
     18 C13       -10.4485   -3.2650   -0.2181 C.3       1 <0>        -0.0719
     19 C14        -6.5465   -0.3900    0.1181 C.2       1 <0>         0.5472
     20 O2         -5.5240    0.2031    0.4013 O.2       1 <0>        -0.4224
     21 C15        -7.8488    0.3047    0.1938 C.ar      1 <0>        -0.0718
     22 C16        -9.0248   -0.4272    0.3679 C.ar      1 <0>        -0.1637
     23 C17       -10.2370    0.2275    0.4382 C.ar      1 <0>        -0.0260
     24 C18       -10.2890    1.6064    0.3362 C.ar      1 <0>        -0.6496
     25 C19        -9.1273    2.3378    0.1631 C.ar      1 <0>        -0.0060
     26 C20        -7.9078    1.6961    0.0974 C.ar      1 <0>        -0.0674
     27 S2        -11.8416    2.4346    0.4264 S.o2      1 <0>         2.6843
     28 O3        -11.6781    3.6780   -0.2417 O.2       1 <0>        -0.9390
     29 O4        -12.8297    1.4880    0.0432 O.2       1 <0>        -0.9472
     30 N4        -12.1167    2.7867    2.0210 N.pl3     1 <0>        -0.9917
     31 C21       -12.8203    1.8317    2.8880 C.3       1 <0>         0.1175
     32 C22       -11.9590    1.5624    4.1259 C.3       1 <0>        -0.1352
     33 C23       -11.6163    2.8915    4.8029 C.3       1 <0>        -0.1214
     34 C24       -10.8136    3.7659    3.8369 C.3       1 <0>        -0.1373
     35 C25       -11.6565    4.0575    2.5972 C.3       1 <0>         0.1153
     36 H1          1.1397    0.9108    1.7716 H         1 <0>         0.0842
     37 H2         -0.2417    1.3465    0.7370 H         1 <0>         0.0685
     38 H3         -0.5164    0.8350    2.4197 H         1 <0>         0.0679
     39 H4          0.6031   -0.9189    0.1864 H         1 <0>         0.0689
     40 H5          0.3283   -1.4303    1.8690 H         1 <0>         0.0685
     41 H6          0.3716   -2.9525    0.4819 H         1 <0>         0.1471
     42 H7         -0.0638   -5.2491   -0.2860 H         1 <0>         0.1505
     43 H8         -2.3660   -5.9234   -0.8768 H         1 <0>         0.1415
     44 H9         -8.5105   -1.6461   -0.8361 H         1 <0>         0.1552
     45 H10        -7.5308   -2.9201   -1.6012 H         1 <0>         0.1157
     46 H11        -7.3069   -4.0240    0.6484 H         1 <0>         0.1461
     47 H12        -8.4171   -2.8031    1.3156 H         1 <0>         0.1478
     48 H13        -9.8442   -4.7158    1.8968 H         1 <0>         0.1257
     49 H14       -10.4517   -5.7703    0.5979 H         1 <0>         0.1333
     50 H15        -8.7371   -5.8384    1.0708 H         1 <0>         0.1278
     51 H16       -11.3219   -3.8627   -0.4791 H         1 <0>         0.1414
     52 H17       -10.6393   -2.7299    0.7122 H         1 <0>         0.1279
     53 H18       -10.2473   -2.5486   -1.0146 H         1 <0>         0.1269
     54 H19        -8.9856   -1.5036    0.4469 H         1 <0>         0.1393
     55 H20       -11.1475   -0.3375    0.5728 H         1 <0>         0.1496
     56 H21        -9.1749    3.4138    0.0835 H         1 <0>         0.1581
     57 H22        -7.0014    2.2686   -0.0332 H         1 <0>         0.1550
     58 H23       -13.7781    2.2527    3.1937 H         1 <0>         0.0828
     59 H24       -12.9844    0.8996    2.3472 H         1 <0>         0.0882
     60 H25       -12.5105    0.9309    4.8224 H         1 <0>         0.0784
     61 H26       -11.0398    1.0587    3.8270 H         1 <0>         0.0625
     62 H27       -12.5366    3.4061    5.0793 H         1 <0>         0.0698
     63 H28       -11.0241    2.7010    5.6980 H         1 <0>         0.0678
     64 H29       -10.5498    4.7027    4.3278 H         1 <0>         0.0818
     65 H30        -9.9051    3.2414    3.5408 H         1 <0>         0.0646
     66 H31       -11.0530    4.5936    1.8647 H         1 <0>         0.0929
     67 H32       -12.5173    4.6641    2.8787 H         1 <0>         0.0833
     68 H33        -9.0595   -4.5801   -0.9291 H         1 <0>         0.4327
@<TRIPOS>BOND
     1    1    2 1
     2    1   36 1
     3    1   37 1
     4    1   38 1
     5    2    3 1
     6    2   39 1
     7    2   40 1
     8    3    4 1
     9    4    9 ar
    10    4    5 ar
    11    5    6 ar
    12    5   41 1
    13    6    7 ar
    14    6   42 1
    15    7    8 ar
    16    7   43 1
    17    8   12 1
    18    8    9 ar
    19    9   10 1
    20   10   11 2
    21   11   12 1
    22   11   13 1
    23   13   14 1
    24   13   19 am
    25   14   15 1
    26   14   44 1
    27   14   45 1
    28   15   16 1
    29   15   46 1
    30   15   47 1
    31   16   17 1
    32   16   18 1
    33   16   68 1
    34   17   48 1
    35   17   49 1
    36   17   50 1
    37   18   51 1
    38   18   52 1
    39   18   53 1
    40   19   20 2
    41   19   21 1
    42   21   26 ar
    43   21   22 ar
    44   22   23 ar
    45   22   54 1
    46   23   24 ar
    47   23   55 1
    48   24   25 ar
    49   24   27 1
    50   25   26 ar
    51   25   56 1
    52   26   57 1
    53   27   28 2
    54   27   29 2
    55   27   30 1
    56   30   35 1
    57   30   31 1
    58   31   32 1
    59   31   58 1
    60   31   59 1
    61   32   33 1
    62   32   60 1
    63   32   61 1
    64   33   34 1
    65   33   62 1
    66   33   63 1
    67   34   35 1
    68   34   64 1
    69   34   65 1
    70   35   66 1
    71   35   67 1
@<TRIPOS>MOLECULE
ZINC36660343
   65    68     0     0     0
SMALL
USER_CHARGES

@<TRIPOS>ATOM
      1 C1         -1.0636    2.0019    0.1979 C.3       1 <0>        -0.0468
      2 N1         -0.6848    0.5918    0.0362 N.4       1 <0>        -0.3873
      3 C2          0.2661    0.2162    1.0910 C.3       1 <0>        -0.0524
      4 C3         -1.8835   -0.2517    0.1347 C.3       1 <0>        -0.0046
      5 C4         -1.5091   -1.7061   -0.1572 C.3       1 <0>        -0.1746
      6 C5         -2.7576   -2.5846   -0.0547 C.3       1 <0>         0.1202
      7 N2         -2.4167   -3.9621   -0.4188 N.am      1 <0>        -0.4998
      8 C6         -2.0321   -4.8631    0.5616 C.2       1 <0>         0.3338
      9 N3         -1.7885   -4.6426    1.8317 N.2       1 <0>        -0.5136
     10 C7         -1.4186   -5.6263    2.6821 C.ar      1 <0>         0.0528
     11 C8         -1.1286   -5.5226    4.0622 C.ar      1 <0>        -0.0190
     12 C9         -0.7639   -6.6261    4.7873 C.ar      1 <0>        -0.1881
     13 C10        -0.6656   -7.8828    4.1972 C.ar      1 <0>         0.1605
     14 C11        -0.9437   -8.0193    2.8453 C.ar      1 <0>        -0.1005
     15 C12        -1.3096   -6.9162    2.1149 C.ar      1 <0>        -0.1264
     16 S1         -1.7496   -6.6220    0.4188 S.3       1 <0>         0.0522
     17 O1         -0.3007   -8.9637    4.9371 O.3       1 <0>        -0.3047
     18 C13        -0.0305   -8.7403    6.3225 C.3       1 <0>         0.0224
     19 C14        -2.4771   -4.3531   -1.7072 C.2       1 <0>         0.5160
     20 O2         -2.8871   -3.5884   -2.5544 O.2       1 <0>        -0.4659
     21 C15        -2.0351   -5.7407   -2.0949 C.3       1 <0>         0.1198
     22 H1         -1.1842   -6.0427   -1.4843 H         1 <0>         0.1107
     23 C16        -3.1990   -6.7355   -1.9018 C.3       1 <0>        -0.1225
     24 C17        -3.7983   -6.8503   -3.3284 C.3       1 <0>        -0.1248
     25 C18        -2.5277   -6.7479   -4.2086 C.3       1 <0>         0.1099
     26 N4         -1.6646   -5.7682   -3.5174 N.pl3     1 <0>        -0.9890
     27 S2         -0.4799   -4.8520   -4.2241 S.o2      1 <0>         2.7121
     28 O3         -0.8104   -4.7538   -5.6026 O.2       1 <0>        -0.9347
     29 O4         -0.3048   -3.7081   -3.3993 O.2       1 <0>        -0.9528
     30 C19         1.0182   -5.7747   -4.1299 C.ar      1 <0>        -0.7008
     31 C20         1.8457   -5.6380   -3.0309 C.ar      1 <0>         0.0069
     32 C21         3.0207   -6.3616   -2.9557 C.ar      1 <0>        -0.1738
     33 C22         3.3690   -7.2237   -3.9815 C.ar      1 <0>         0.1653
     34 C23         2.5395   -7.3599   -5.0817 C.ar      1 <0>        -0.1698
     35 C24         1.3624   -6.6392   -5.1523 C.ar      1 <0>         0.0134
     36 F1          4.5177   -7.9313   -3.9093 F         1 <0>        -0.1228
     37 H2         -0.1742    2.6277    0.1249 H         1 <0>         0.1247
     38 H3         -1.7693    2.2806   -0.5847 H         1 <0>         0.1244
     39 H4         -1.5285    2.1436    1.1736 H         1 <0>         0.1223
     40 H5          1.1556    0.8420    1.0180 H         1 <0>         0.1246
     41 H6         -0.1987    0.3579    2.0666 H         1 <0>         0.1233
     42 H7          0.5472   -0.8301    0.9710 H         1 <0>         0.1232
     43 H8         -2.2981   -0.1779    1.1400 H         1 <0>         0.1335
     44 H9         -2.6251    0.0850   -0.5898 H         1 <0>         0.1353
     45 H10        -1.0945   -1.7799   -1.1626 H         1 <0>         0.1039
     46 H11        -0.7675   -2.0428    0.5672 H         1 <0>         0.0956
     47 H12        -3.1349   -2.5618    0.9677 H         1 <0>         0.1072
     48 H13        -3.5233   -2.2083   -0.7331 H         1 <0>         0.1092
     49 H14        -1.1951   -4.5616    4.5505 H         1 <0>         0.1372
     50 H15        -0.5475   -6.5186    5.8400 H         1 <0>         0.1437
     51 H16        -0.8723   -8.9867    2.3705 H         1 <0>         0.1457
     52 H17         0.2486   -9.6822    6.7947 H         1 <0>         0.1093
     53 H18         0.7877   -8.0271    6.4226 H         1 <0>         0.0610
     54 H19        -0.9218   -8.3412    6.8067 H         1 <0>         0.0618
     55 H20        -2.8278   -7.7018   -1.5606 H         1 <0>         0.1070
     56 H21        -3.9360   -6.3362   -1.2050 H         1 <0>         0.0923
     57 H22        -4.2939   -7.8110   -3.4678 H         1 <0>         0.1009
     58 H23        -4.4823   -6.0264   -3.5323 H         1 <0>         0.0857
     59 H24        -2.0288   -7.7152   -4.2685 H         1 <0>         0.0822
     60 H25        -2.7848   -6.3904   -5.2057 H         1 <0>         0.0977
     61 H26         1.5740   -4.9651   -2.2310 H         1 <0>         0.1432
     62 H27         3.6672   -6.2543   -2.0972 H         1 <0>         0.1485
     63 H28         2.8103   -8.0319   -5.8827 H         1 <0>         0.1527
     64 H29         0.7130   -6.7486   -6.0083 H         1 <0>         0.1536
     65 H30        -0.2545    0.4606   -0.8669 H         1 <0>         0.4292
@<TRIPOS>BOND
     1    1    2 1
     2    1   37 1
     3    1   38 1
     4    1   39 1
     5    2    3 1
     6    2    4 1
     7    2   65 1
     8    3   40 1
     9    3   41 1
    10    3   42 1
    11    4    5 1
    12    4   43 1
    13    4   44 1
    14    5    6 1
    15    5   45 1
    16    5   46 1
    17    6    7 1
    18    6   47 1
    19    6   48 1
    20    7    8 1
    21    7   19 am
    22    8   16 1
    23    8    9 2
    24    9   10 1
    25   10   15 ar
    26   10   11 ar
    27   11   12 ar
    28   11   49 1
    29   12   13 ar
    30   12   50 1
    31   13   14 ar
    32   13   17 1
    33   14   15 ar
    34   14   51 1
    35   15   16 1
    36   17   18 1
    37   18   52 1
    38   18   53 1
    39   18   54 1
    40   19   20 2
    41   19   21 1
    42   21   22 1
    43   21   26 1
    44   21   23 1
    45   23   24 1
    46   23   55 1
    47   23   56 1
    48   24   25 1
    49   24   57 1
    50   24   58 1
    51   25   26 1
    52   25   59 1
    53   25   60 1
    54   26   27 1
    55   27   28 2
    56   27   29 2
    57   27   30 1
    58   30   35 ar
    59   30   31 ar
    60   31   32 ar
    61   31   61 1
    62   32   33 ar
    63   32   62 1
    64   33   34 ar
    65   33   36 1
    66   34   35 ar
    67   34   63 1
    68   35   64 1
@<TRIPOS>MOLECULE
ZINC39710803
   67    71     0     0     0
SMALL
USER_CHARGES

@<TRIPOS>ATOM
      1 C1         -2.6901   -6.1277    1.4038 C.3       1 <0>        -0.1300
      2 C2         -2.7624   -5.4753    2.7603 C.ar      1 <0>        -0.1875
      3 C3         -3.6995   -5.8834    3.6555 C.ar      1 <0>         0.0928
      4 C4         -3.8201   -5.3223    4.9271 C.ar      1 <0>        -0.1677
      5 C5         -2.9960   -4.3257    5.3416 C.ar      1 <0>         0.0366
      6 C6         -1.9632   -3.8380    4.4268 C.ar      1 <0>        -0.1885
      7 C7         -1.1134   -2.8393    4.7998 C.2       1 <0>         0.1810
      8 C8         -0.0744   -2.3968    3.7882 C.3       1 <0>        -0.1393
      9 H1         -0.2169   -1.3315    3.6066 H         1 <0>         0.1914
     10 C9         -0.0652   -3.0986    2.4489 C.2       1 <0>         0.5162
     11 O1          0.7473   -2.7837    1.6001 O.2       1 <0>        -0.4290
     12 N1         -0.9437   -4.0564    2.2040 N.am      1 <0>        -0.6009
     13 C10        -1.8553   -4.4523    3.0922 C.ar      1 <0>         0.3424
     14 C11         1.3059   -2.5795    4.4224 C.3       1 <0>         0.1851
     15 H2          2.0745   -2.2622    3.7177 H         1 <0>         0.1083
     16 C12         1.5112   -4.0316    4.7693 C.2       1 <0>         0.1364
     17 N2          0.9653   -4.6824    5.7675 N.2       1 <0>        -0.2657
     18 N3          1.3870   -5.8992    5.7274 N.2       1 <0>        -0.0568
     19 N4          2.1878   -6.0414    4.7294 N.2       1 <0>        -0.0611
     20 N5          2.2860   -4.9135    4.1108 N.pl3     1 <0>        -0.2891
     21 C13         3.0922   -4.6425    2.9180 C.3       1 <0>         0.0977
     22 C14         4.4916   -4.1904    3.3401 C.3       1 <0>         0.0496
     23 O2          5.2780   -3.9261    2.1766 O.3       1 <0>        -0.3800
     24 C15         6.6103   -3.4949    2.4612 C.3       1 <0>         0.0306
     25 N6          1.3954   -1.7671    5.6431 N.3       1 <0>        -0.5201
     26 C16         1.2780   -0.3360    5.3328 C.3       1 <0>         0.0253
     27 C17         1.1938    0.4612    6.6387 C.3       1 <0>         0.1295
     28 N7          2.3437    0.0999    7.4816 N.pl3     1 <0>        -0.6324
     29 C18         2.6072   -1.3265    7.7250 C.3       1 <0>         0.1295
     30 C19         2.6357   -2.0533    6.3763 C.3       1 <0>         0.0404
     31 C20         3.1641    1.0852    8.0358 C.ar      1 <0>         0.2138
     32 C21         2.8319    2.4270    7.8965 C.ar      1 <0>        -0.1643
     33 C22         3.6449    3.3985    8.4460 C.ar      1 <0>        -0.0680
     34 C23         4.7889    3.0371    9.1340 C.ar      1 <0>        -0.1243
     35 C24         5.1227    1.7027    9.2741 C.ar      1 <0>        -0.1298
     36 C25         4.3106    0.7255    8.7323 C.ar      1 <0>        -0.1501
     37 C26         6.3707    1.3137   10.0238 C.3       1 <0>         0.5059
     38 F1          7.0192    2.4664   10.4798 F         1 <0>        -0.1731
     39 F2          6.0273    0.5091   11.1155 F         1 <0>        -0.1753
     40 F3          7.2244    0.6045    9.1721 F         1 <0>        -0.1774
     41 H3         -2.0189   -6.9853    1.4484 H         1 <0>         0.0928
     42 H4         -3.6849   -6.4600    1.1069 H         1 <0>         0.1016
     43 H5         -2.3143   -5.4097    0.6749 H         1 <0>         0.0711
     44 H6         -4.3785   -6.6736    3.3711 H         1 <0>         0.1674
     45 H7         -4.5853   -5.6880    5.5958 H         1 <0>         0.1679
     46 H8         -3.1011   -3.9005    6.3288 H         1 <0>         0.1781
     47 H9         -1.1779   -2.3817    5.7760 H         1 <0>         0.2107
     48 H10         3.1689   -5.5490    2.3177 H         1 <0>         0.1339
     49 H11         2.6183   -3.8564    2.3301 H         1 <0>         0.1231
     50 H12         4.4149   -3.2839    3.9405 H         1 <0>         0.0558
     51 H13         4.9654   -4.9765    3.9280 H         1 <0>         0.0714
     52 H14         6.5776   -2.5739    3.0433 H         1 <0>         0.0479
     53 H15         7.1281   -4.2666    3.0308 H         1 <0>         0.0514
     54 H16         7.1415   -3.3153    1.5265 H         1 <0>         0.1013
     55 H17         2.1514   -0.0140    4.7657 H         1 <0>         0.0613
     56 H18         0.3774   -0.1644    4.7431 H         1 <0>         0.0917
     57 H19         1.2221    1.5284    6.4187 H         1 <0>         0.0983
     58 H20         0.2676    0.2160    7.1583 H         1 <0>         0.0788
     59 H21         3.5698   -1.4412    8.2232 H         1 <0>         0.0938
     60 H22         1.8168   -1.7435    8.3491 H         1 <0>         0.0823
     61 H23         2.7198   -3.1272    6.5435 H         1 <0>         0.0866
     62 H24         3.4902   -1.7074    5.7947 H         1 <0>         0.0518
     63 H25         1.9391    2.7099    7.3587 H         1 <0>         0.1322
     64 H26         3.3872    4.4418    8.3381 H         1 <0>         0.1380
     65 H27         5.4232    3.7990    9.5626 H         1 <0>         0.1389
     66 H28         4.5693   -0.3168    8.8461 H         1 <0>         0.1314
     67 H29        -0.9210   -4.4940    1.3387 H         1 <0>         0.4383
@<TRIPOS>BOND
     1    1    2 1
     2    1   41 1
     3    1   42 1
     4    1   43 1
     5    2   13 ar
     6    2    3 ar
     7    3    4 ar
     8    3   44 1
     9    4    5 ar
    10    4   45 1
    11    5    6 ar
    12    5   46 1
    13    6   13 ar
    14    6    7 2
    15    7    8 1
    16    7   47 1
    17    8    9 1
    18    8   10 1
    19    8   14 1
    20   10   11 2
    21   10   12 am
    22   12   13 2
    23   12   67 1
    24   14   15 1
    25   14   16 1
    26   14   25 1
    27   16   20 1
    28   16   17 2
    29   17   18 1
    30   18   19 2
    31   19   20 1
    32   20   21 1
    33   21   22 1
    34   21   48 1
    35   21   49 1
    36   22   23 1
    37   22   50 1
    38   22   51 1
    39   23   24 1
    40   24   52 1
    41   24   53 1
    42   24   54 1
    43   25   30 1
    44   25   26 1
    45   26   27 1
    46   26   55 1
    47   26   56 1
    48   27   28 1
    49   27   57 1
    50   27   58 1
    51   28   29 1
    52   28   31 1
    53   29   30 1
    54   29   59 1
    55   29   60 1
    56   30   61 1
    57   30   62 1
    58   31   36 ar
    59   31   32 ar
    60   32   33 ar
    61   32   63 1
    62   33   34 ar
    63   33   64 1
    64   34   35 ar
    65   34   65 1
    66   35   36 ar
    67   35   37 1
    68   36   66 1
    69   37   38 1
    70   37   39 1
    71   37   40 1
@<TRIPOS>MOLECULE
ZINC63372344
   76    80     0     0     0
SMALL
USER_CHARGES

@<TRIPOS>ATOM
      1 C1          0.0696    1.5383    0.1139 C.3       1 <0>        -0.1550
      2 C2          0.0840    0.0085    0.0939 C.3       1 <0>         0.0616
      3 O1          0.7508   -0.4769    1.2609 O.3       1 <0>        -0.3192
      4 C3          0.8511   -1.8262    1.3984 C.ar      1 <0>         0.0908
      5 C4         -0.1447   -2.5333    2.0529 C.ar      1 <0>        -0.0920
      6 C5         -0.0415   -3.9049    2.1915 C.ar      1 <0>        -0.1412
      7 C6          1.0542   -4.5740    1.6785 C.ar      1 <0>        -0.0794
      8 C7          2.0514   -3.8745    1.0248 C.ar      1 <0>        -0.1808
      9 C8          1.9511   -2.5004    0.8771 C.ar      1 <0>         0.1224
     10 O2          2.9283   -1.8115    0.2290 O.3       1 <0>        -0.3001
     11 C9          4.0277   -2.5692   -0.2800 C.3       1 <0>         0.0205
     12 C10        -1.3400   -1.8071    2.6142 C.3       1 <0>        -0.0002
     13 H1         -1.2565   -0.7387    2.4155 H         1 <0>         0.1445
     14 C11        -1.4479   -2.0559    4.1209 C.3       1 <0>         0.1257
     15 N1         -2.7808   -1.8306    4.6517 N.am      1 <0>        -0.6128
     16 C12        -2.8990   -1.7272    6.0176 C.2       1 <0>         0.5133
     17 O3         -1.9244   -1.6824    6.7380 O.2       1 <0>        -0.4691
     18 C13        -4.3036   -1.6714    6.5795 C.3       1 <0>         0.0708
     19 N2         -5.1264   -2.6815    5.8878 N.am      1 <0>        -0.5977
     20 C14        -5.0219   -2.7239    4.5252 C.2       1 <0>         0.5240
     21 O4         -5.6776   -3.4866    3.8476 O.2       1 <0>        -0.5162
     22 C15        -4.0353   -1.7562    3.9242 C.3       1 <0>         0.1574
     23 C16        -3.9652   -1.8068    2.4300 C.3       1 <0>         0.1104
     24 H2         -4.0855   -0.7998    2.0306 H         1 <0>         0.1885
     25 C17        -2.6093   -2.3502    2.0072 C.2       1 <0>         0.0338
     26 C18        -2.8459   -3.2999    1.1153 C.ar      1 <0>        -0.1361
     27 C19        -1.9466   -4.1142    0.2819 C.ar      1 <0>        -0.0139
     28 C20        -2.5424   -5.0316   -0.5248 C.ar      1 <0>        -0.1561
     29 C21        -3.9268   -5.2190   -0.5859 C.ar      1 <0>         0.0527
     30 C22        -4.8291   -4.5088    0.1371 C.ar      1 <0>        -0.2033
     31 C23        -4.3239   -3.5080    1.0166 C.ar      1 <0>         0.3427
     32 N3         -4.9432   -2.6938    1.8018 N.pl3     1 <0>        -0.5347
     33 C24        -4.5995   -0.3691    4.2381 C.3       1 <0>        -0.2073
     34 C25        -6.0087   -3.5917    6.6221 C.3       1 <0>         0.1210
     35 C26        -7.3925   -2.9550    6.7660 C.3       1 <0>        -0.1348
     36 C27        -8.3140   -3.9056    7.5329 C.3       1 <0>         0.0643
     37 O5         -9.6064   -3.3109    7.6673 O.3       1 <0>        -0.3829
     38 C28       -10.5486   -4.1214    8.3726 C.3       1 <0>         0.0825
     39 C29       -10.4764   -3.8037    9.8675 C.3       1 <0>        -0.1771
     40 C30       -11.9592   -3.8297    7.8568 C.3       1 <0>        -0.1520
     41 H3          1.0938    1.9111    0.1287 H         1 <0>         0.0728
     42 H4         -0.4390    1.9085   -0.7762 H         1 <0>         0.0789
     43 H5         -0.4562    1.8851    1.0035 H         1 <0>         0.0644
     44 H6         -0.9401   -0.3644    0.0791 H         1 <0>         0.0433
     45 H7          0.6098   -0.3383   -0.7957 H         1 <0>         0.0607
     46 H8         -0.8183   -4.4549    2.7018 H         1 <0>         0.1295
     47 H9          1.1314   -5.6456    1.7891 H         1 <0>         0.1403
     48 H10         2.9065   -4.3996    0.6254 H         1 <0>         0.1439
     49 H11         4.5269   -3.0822    0.5420 H         1 <0>         0.0622
     50 H12         3.6617   -3.3034   -0.9977 H         1 <0>         0.0601
     51 H13         4.7332   -1.9000   -0.7725 H         1 <0>         0.1093
     52 H14        -1.1603   -3.0872    4.3258 H         1 <0>         0.0832
     53 H15        -0.7511   -1.3937    4.6347 H         1 <0>         0.1177
     54 H16        -4.2795   -1.8880    7.6475 H         1 <0>         0.1376
     55 H17        -4.7251   -0.6800    6.4137 H         1 <0>         0.1275
     56 H18        -0.8742   -3.9896    0.3095 H         1 <0>         0.1733
     57 H19        -1.9142   -5.6475   -1.1512 H         1 <0>         0.1543
     58 H20        -4.3032   -5.9798   -1.2536 H         1 <0>         0.1585
     59 H21        -5.8893   -4.6949    0.0493 H         1 <0>         0.1703
     60 H22        -3.7819    0.3087    4.4832 H         1 <0>         0.1034
     61 H23        -5.1373    0.0096    3.3690 H         1 <0>         0.0884
     62 H24        -5.2813   -0.4375    5.0858 H         1 <0>         0.0969
     63 H25        -6.0961   -4.5315    6.0770 H         1 <0>         0.0934
     64 H26        -5.5920   -3.7826    7.6110 H         1 <0>         0.0959
     65 H27        -7.3051   -2.0151    7.3111 H         1 <0>         0.0789
     66 H28        -7.8092   -2.7641    5.7770 H         1 <0>         0.0758
     67 H29        -8.4014   -4.8454    6.9878 H         1 <0>         0.0511
     68 H30        -7.8973   -4.0965    8.5218 H         1 <0>         0.0530
     69 H31       -10.3139   -5.1738    8.2130 H         1 <0>         0.0606
     70 H32       -11.1950   -4.4219   10.4055 H         1 <0>         0.0690
     71 H33        -9.4714   -4.0115   10.2350 H         1 <0>         0.0555
     72 H34       -10.7111   -2.7513   10.0270 H         1 <0>         0.0654
     73 H35       -12.0107   -4.0560    6.7918 H         1 <0>         0.0606
     74 H36       -12.6779   -4.4479    8.3948 H         1 <0>         0.0731
     75 H37       -12.1940   -2.7773    8.0163 H         1 <0>         0.0650
     76 H38        -5.9029   -2.6719    1.9412 H         1 <0>         0.4611
@<TRIPOS>BOND
     1    1    2 1
     2    1   41 1
     3    1   42 1
     4    1   43 1
     5    2    3 1
     6    2   44 1
     7    2   45 1
     8    3    4 1
     9    4    9 ar
    10    4    5 ar
    11    5    6 ar
    12    5   12 1
    13    6    7 ar
    14    6   46 1
    15    7    8 ar
    16    7   47 1
    17    8    9 ar
    18    8   48 1
    19    9   10 1
    20   10   11 1
    21   11   49 1
    22   11   50 1
    23   11   51 1
    24   12   13 1
    25   12   25 1
    26   12   14 1
    27   14   15 1
    28   14   52 1
    29   14   53 1
    30   15   22 1
    31   15   16 am
    32   16   17 2
    33   16   18 1
    34   18   19 1
    35   18   54 1
    36   18   55 1
    37   19   20 am
    38   19   34 1
    39   20   21 2
    40   20   22 1
    41   22   23 1
    42   22   33 1
    43   23   24 1
    44   23   32 1
    45   23   25 1
    46   25   26 2
    47   26   31 ar
    48   26   27 ar
    49   27   28 ar
    50   27   56 1
    51   28   29 ar
    52   28   57 1
    53   29   30 ar
    54   29   58 1
    55   30   31 ar
    56   30   59 1
    57   31   32 2
    58   32   76 1
    59   33   60 1
    60   33   61 1
    61   33   62 1
    62   34   35 1
    63   34   63 1
    64   34   64 1
    65   35   36 1
    66   35   65 1
    67   35   66 1
    68   36   37 1
    69   36   67 1
    70   36   68 1
    71   37   38 1
    72   38   39 1
    73   38   40 1
    74   38   69 1
    75   39   70 1
    76   39   71 1
    77   39   72 1
    78   40   73 1
    79   40   74 1
    80   40   75 1
@<TRIPOS>MOLECULE
ZINC06857339
   54    54     0     0     0
SMALL
USER_CHARGES
2-[2-bromo-6-methoxy-4-(1,1,3,3-tetramethylbutylaminomethyl)phenoxy]acetamide
@<TRIPOS>ATOM
      1 C1         -0.4362    2.7083    9.7590 C.3       1 <0>        -0.1876
      2 C2          0.4448    1.9800   10.7761 C.3       1 <0>        -0.0870
      3 C3         -0.0164    2.3289   12.1926 C.3       1 <0>        -0.1448
      4 C4          1.9006    2.4133   10.5925 C.3       1 <0>        -0.1685
      5 C5          0.3311    0.4696   10.5602 C.3       1 <0>        -0.1298
      6 C6          1.0167    0.0892    9.2464 C.3       1 <0>         0.0618
      7 C7          0.5813   -1.3180    8.8328 C.3       1 <0>        -0.1761
      8 C8          2.5346    0.1183    9.4362 C.3       1 <0>        -0.1952
      9 C9          1.2766    0.7125    6.9212 C.3       1 <0>         0.0341
     10 C10         0.8630    1.7146    5.8745 C.ar      1 <0>        -0.1188
     11 C11         1.6106    2.8623    5.6848 C.ar      1 <0>        -0.1702
     12 C12         1.2321    3.7850    4.7231 C.ar      1 <0>         0.1327
     13 C13         0.0991    3.5537    3.9490 C.ar      1 <0>         0.1214
     14 C14        -0.6489    2.4038    4.1471 C.ar      1 <0>        -0.0771
     15 C15        -0.2624    1.4843    5.1061 C.ar      1 <0>        -0.0930
     16 Br1        -2.1937    2.0887    3.1030 Br        1 <0>         0.0067
     17 O1         -0.2767    4.4568    3.0039 O.3       1 <0>        -0.2865
     18 C16         0.2574    4.2813    1.6901 C.3       1 <0>         0.0456
     19 C17        -0.2660    5.3673    0.7859 C.2       1 <0>         0.5210
     20 O2         -1.0220    6.2088    1.2234 O.2       1 <0>        -0.5116
     21 N1          0.1060    5.4035   -0.5090 N.am      1 <0>        -0.8488
     22 O3          1.9666    4.9141    4.5356 O.3       1 <0>        -0.2906
     23 C18         3.1168    5.0852    5.3662 C.3       1 <0>         0.0186
     24 H1         -1.4381    2.2793    9.7730 H         1 <0>         0.0847
     25 H2         -0.4902    3.7661   10.0167 H         1 <0>         0.0919
     26 H3         -0.0078    2.5985    8.7628 H         1 <0>         0.0441
     27 H4          0.6112    1.8101   12.9172 H         1 <0>         0.0675
     28 H5          0.0646    3.4050   12.3464 H         1 <0>         0.0684
     29 H6         -1.0536    2.0203   12.3234 H         1 <0>         0.0659
     30 H7          2.1561    2.3891    9.5332 H         1 <0>         0.0456
     31 H8          2.0292    3.4262   10.9742 H         1 <0>         0.0775
     32 H9          2.5538    1.7333   11.1395 H         1 <0>         0.0828
     33 H10        -0.7208    0.1870   10.5163 H         1 <0>         0.0944
     34 H11         0.8134   -0.0528   11.3864 H         1 <0>         0.1134
     35 H12         1.1928   -1.6564    7.9963 H         1 <0>         0.0839
     36 H13         0.7076   -1.9994    9.6741 H         1 <0>         0.1059
     37 H14        -0.4666   -1.3008    8.5333 H         1 <0>         0.0806
     38 H15         2.8929    1.1434    9.3421 H         1 <0>         0.0944
     39 H16         2.7844   -0.2646   10.4257 H         1 <0>         0.1047
     40 H17         3.0078   -0.5032    8.6760 H         1 <0>         0.0822
     41 H18         0.9683   -0.2858    6.6104 H         1 <0>         0.1431
     42 H19         2.3598    0.7375    7.0403 H         1 <0>         0.1403
     43 H20         2.4896    3.0397    6.2868 H         1 <0>         0.1476
     44 H21        -0.8437    0.5867    5.2572 H         1 <0>         0.1498
     45 H22        -0.0446    3.3085    1.3021 H         1 <0>         0.0901
     46 H23         1.3453    4.3348    1.7301 H         1 <0>         0.0920
     47 H24         0.7106    4.7306   -0.8589 H         1 <0>         0.4036
     48 H25        -0.2309    6.1026   -1.0911 H         1 <0>         0.4130
     49 H26         3.8070    4.2569    5.2062 H         1 <0>         0.0624
     50 H27         3.6106    6.0236    5.1141 H         1 <0>         0.1150
     51 H28         2.8099    5.1056    6.4120 H         1 <0>         0.0599
     52 N2          0.6290    1.0554    8.2014 N.4       1 <0>        -0.5278
     53 H29         0.9203    1.9978    8.4866 H         1 <0>         0.4368
     54 H30        -0.3905    1.0339    8.0817 H         1 <0>         0.4302
@<TRIPOS>BOND
     1    1    2 1
     2    1   24 1
     3    1   25 1
     4    1   26 1
     5    2    3 1
     6    2    4 1
     7    2    5 1
     8    3   27 1
     9    3   28 1
    10    3   29 1
    11    4   30 1
    12    4   31 1
    13    4   32 1
    14    5    6 1
    15    5   33 1
    16    5   34 1
    17    6    7 1
    18    6    8 1
    19    6   52 1
    20    7   35 1
    21    7   36 1
    22    7   37 1
    23    8   38 1
    24    8   39 1
    25    8   40 1
    26    9   10 1
    27    9   41 1
    28    9   42 1
    29    9   52 1
    30   10   15 ar
    31   10   11 ar
    32   11   12 ar
    33   11   43 1
    34   12   13 ar
    35   12   22 1
    36   13   14 ar
    37   13   17 1
    38   14   15 ar
    39   14   16 1
    40   15   44 1
    41   17   18 1
    42   18   19 1
    43   18   45 1
    44   18   46 1
    45   19   20 2
    46   19   21 am
    47   21   47 1
    48   21   48 1
    49   22   23 1
    50   23   49 1
    51   23   50 1
    52   23   51 1
    53   52   53 1
    54   52   54 1
@<TRIPOS>MOLECULE
ZINC25382094
   56    58     0     0     0
SMALL
USER_CHARGES
4-(2-amino-2-oxo-ethoxy)-N-[(2R)-2-(4-methyl-1-piperidyl)-2-(2-thienyl)ethyl]benzamide
@<TRIPOS>ATOM
      1 C1          2.6454   -0.5366   -2.6669 C.3       1 <0>        -0.1547
      2 C2          2.0307   -0.0380   -1.3575 C.3       1 <0>        -0.1057
      3 C3          0.6140   -0.6002   -1.2107 C.3       1 <0>        -0.1405
      4 C4         -0.0178   -0.0497    0.0699 C.3       1 <0>        -0.0079
      5 N1         -0.0580    1.4168    0.0061 N.4       1 <0>        -0.3961
      6 C5          1.2943    1.9815   -0.0875 C.3       1 <0>        -0.0220
      7 C6          1.9653    1.4917   -1.3728 C.3       1 <0>        -0.1375
      8 C7         -0.7829    1.9741    1.1559 C.3       1 <0>         0.1334
      9 H1         -1.8414    1.6935    1.0517 H         1 <0>         0.1598
     10 C8         -0.6188    3.4951    1.1737 C.3       1 <0>         0.1027
     11 N2         -1.0503    4.0479   -0.1126 N.am      1 <0>        -0.7614
     12 C9         -0.9944    5.3773   -0.3275 C.2       1 <0>         0.5759
     13 O1         -0.5860    6.1177    0.5461 O.2       1 <0>        -0.5135
     14 C10        -1.4292    5.9343   -1.6234 C.ar      1 <0>        -0.1872
     15 C11        -1.8936    5.0844   -2.6307 C.ar      1 <0>        -0.0440
     16 C12        -2.3041    5.6086   -3.8361 C.ar      1 <0>        -0.2203
     17 C13        -2.2454    6.9798   -4.0560 C.ar      1 <0>         0.1697
     18 C14        -1.7786    7.8279   -3.0586 C.ar      1 <0>        -0.1504
     19 C15        -1.3721    7.3122   -1.8482 C.ar      1 <0>        -0.0103
     20 O2         -2.6451    7.4919   -5.2475 O.3       1 <0>        -0.2803
     21 C16        -3.1137    6.5639   -6.2280 C.3       1 <0>         0.0345
     22 C17        -3.5107    7.3096   -7.4760 C.2       1 <0>         0.5176
     23 O3         -3.4031    8.5167   -7.5213 O.2       1 <0>        -0.5214
     24 N3         -3.9855    6.6349   -8.5418 N.am      1 <0>        -0.8726
     25 C18        -0.2257    1.3938    2.4302 C.2       1 <0>        -0.2539
     26 C19        -0.8876    0.8650    3.4883 C.2       1 <0>        -0.0686
     27 C20        -0.1609    0.3859    4.5621 C.2       1 <0>        -0.1742
     28 C21         1.1921    0.4589    4.5253 C.2       1 <0>        -0.1169
     29 S1          1.4778    1.2172    2.9345 S.3       1 <0>         0.0608
     30 H2          2.6920   -1.6355   -2.6550 H         1 <0>         0.0678
     31 H3          3.6609   -0.1277   -2.7743 H         1 <0>         0.0679
     32 H4          2.0252   -0.2050   -3.5127 H         1 <0>         0.0623
     33 H5          2.6518   -0.3738   -0.5140 H         1 <0>         0.0890
     34 H6          0.0087   -0.3000   -2.0787 H         1 <0>         0.0894
     35 H7          0.6589   -1.6980   -1.1570 H         1 <0>         0.1141
     36 H8         -1.0412   -0.4401    0.1709 H         1 <0>         0.1330
     37 H9          0.5812   -0.3622    0.9380 H         1 <0>         0.1296
     38 H10         1.2328    3.0797   -0.1021 H         1 <0>         0.1387
     39 H11         1.8873    1.6589    0.7810 H         1 <0>         0.1256
     40 H12         2.9841    1.9016   -1.4359 H         1 <0>         0.1143
     41 H13         1.3814    1.8251   -2.2434 H         1 <0>         0.0907
     42 H14        -1.2335    3.9208    1.9805 H         1 <0>         0.1176
     43 H15         0.4379    3.7479    1.3455 H         1 <0>         0.0990
     44 H16        -1.4199    3.3780   -0.9029 H         1 <0>         0.4068
     45 H17        -1.9347    4.0184   -2.4625 H         1 <0>         0.1213
     46 H18        -2.6677    4.9529   -4.6135 H         1 <0>         0.1377
     47 H19        -1.7345    8.8928   -3.2332 H         1 <0>         0.1470
     48 H20        -1.0099    7.9719   -1.0736 H         1 <0>         0.1476
     49 H21        -2.3135    5.8481   -6.4674 H         1 <0>         0.0974
     50 H22        -3.9848    6.0211   -5.8324 H         1 <0>         0.0980
     51 H23        -4.2753    7.1791   -9.4528 H         1 <0>         0.4365
     52 H24        -4.0832    5.5400   -8.5007 H         1 <0>         0.4217
     53 H25        -1.9666    0.8191    3.4924 H         1 <0>         0.1461
     54 H26        -0.6637   -0.0400    5.4178 H         1 <0>         0.1516
     55 H27         1.9109    0.1380    5.2647 H         1 <0>         0.1997
     56 H28        -0.6025    1.6978   -0.9074 H         1 <0>         0.4346
@<TRIPOS>BOND
     1    1    2 1
     2    1   30 1
     3    1   31 1
     4    1   32 1
     5    2    7 1
     6    2    3 1
     7    2   33 1
     8    3    4 1
     9    3   34 1
    10    3   35 1
    11    4    5 1
    12    4   36 1
    13    4   37 1
    14    5    6 1
    15    5    8 1
    16    5   56 1
    17    6    7 1
    18    6   38 1
    19    6   39 1
    20    7   40 1
    21    7   41 1
    22    8    9 1
    23    8   10 1
    24    8   25 1
    25   10   11 1
    26   10   42 1
    27   10   43 1
    28   11   12 am
    29   11   44 1
    30   12   13 2
    31   12   14 1
    32   14   19 ar
    33   14   15 ar
    34   15   16 ar
    35   15   45 1
    36   16   17 ar
    37   16   46 1
    38   17   18 ar
    39   17   20 1
    40   18   19 ar
    41   18   47 1
    42   19   48 1
    43   20   21 1
    44   21   22 1
    45   21   49 1
    46   21   50 1
    47   22   23 2
    48   22   24 am
    49   24   51 1
    50   24   52 1
    51   25   29 1
    52   25   26 2
    53   26   27 1
    54   26   53 1
    55   27   28 2
    56   27   54 1
    57   28   29 1
    58   28   55 1
@<TRIPOS>MOLECULE
ZINC48181303
   56    57     0     0     0
SMALL
USER_CHARGES

@<TRIPOS>ATOM
      1 C1         -0.4724    1.6346   -2.7954 C.3       1 <0>        -0.1874
      2 C2         -0.5822    0.3393   -1.9884 C.3       1 <0>        -0.0224
      3 N1          0.5786   -0.5148   -2.2732 N.4       1 <0>        -0.3841
      4 C3          1.8096    0.1868   -1.8857 C.3       1 <0>        -0.0123
      5 C4          3.0235   -0.5989   -2.3858 C.3       1 <0>        -0.1963
      6 C5          0.4661   -1.7645   -1.5093 C.3       1 <0>         0.0867
      7 H1          0.5670   -1.5503   -0.4453 H         1 <0>         0.1480
      8 C6         -0.8991   -2.4028   -1.7737 C.3       1 <0>         0.1233
      9 N2         -1.8938   -1.8205   -0.8694 N.am      1 <0>        -0.7574
     10 C7         -3.1995   -2.1170   -1.0231 C.2       1 <0>         0.7054
     11 O1         -3.5519   -2.8677   -1.9123 O.2       1 <0>        -0.5511
     12 N3         -4.1146   -1.5814   -0.1912 N.am      1 <0>        -0.6723
     13 C8         -5.4539   -1.9556   -0.2940 C.ar      1 <0>         0.1762
     14 C9         -5.9677   -2.3665   -1.5202 C.ar      1 <0>        -0.1320
     15 C10        -7.2893   -2.7365   -1.6252 C.ar      1 <0>        -0.0707
     16 C11        -8.1153   -2.6997   -0.4982 C.ar      1 <0>        -0.1424
     17 C12        -7.5960   -2.2871    0.7317 C.ar      1 <0>        -0.0372
     18 C13        -6.2719   -1.9228    0.8307 C.ar      1 <0>        -0.1185
     19 C14        -5.7095   -1.4831    2.1579 C.3       1 <0>        -0.1164
     20 C15        -9.5329   -3.0953   -0.6071 C.2       1 <0>         0.5556
     21 O2        -10.2503   -3.0628    0.3740 O.2       1 <0>        -0.5321
     22 N4        -10.0324   -3.4927   -1.7942 N.am      1 <0>        -0.7308
     23 C16       -11.4396   -3.8854   -1.9023 C.3       1 <0>         0.0850
     24 C17         1.5557   -2.7140   -1.9361 C.2       1 <0>        -0.1514
     25 C18         2.2706   -3.4303   -0.9945 C.2       1 <0>        -0.1618
     26 C19         3.2442   -4.2759   -1.4120 C.2       1 <0>        -0.1470
     27 S1          3.1723   -4.0756   -3.1845 S.3       1 <0>         0.1390
     28 C20         1.8457   -2.8826   -3.2494 C.2       1 <0>        -0.1966
     29 H2          0.4417    2.1594   -2.5176 H         1 <0>         0.0831
     30 H3         -0.4470    1.3989   -3.8593 H         1 <0>         0.0815
     31 H4         -1.3337    2.2684   -2.5841 H         1 <0>         0.1075
     32 H5         -0.6076    0.5751   -0.9245 H         1 <0>         0.1274
     33 H6         -1.4963   -0.1854   -2.2662 H         1 <0>         0.1360
     34 H7          1.8145    1.1832   -2.3277 H         1 <0>         0.1348
     35 H8          1.8535    0.2709   -0.7998 H         1 <0>         0.1285
     36 H9          3.1343   -1.5097   -1.7974 H         1 <0>         0.0927
     37 H10         2.8809   -0.8590   -3.4346 H         1 <0>         0.0795
     38 H11         3.9200    0.0122   -2.2816 H         1 <0>         0.0991
     39 H12        -1.1935   -2.2160   -2.8065 H         1 <0>         0.0971
     40 H13        -0.8370   -3.4774   -1.6022 H         1 <0>         0.1149
     41 H14        -1.6126   -1.2217   -0.1601 H         1 <0>         0.4000
     42 H15        -3.8416   -0.9356    0.4791 H         1 <0>         0.4103
     43 H16        -5.3289   -2.3947   -2.3906 H         1 <0>         0.1554
     44 H17        -7.6876   -3.0546   -2.5773 H         1 <0>         0.1309
     45 H18        -8.2316   -2.2572    1.6043 H         1 <0>         0.1440
     46 H19        -5.8291   -0.4049    2.2640 H         1 <0>         0.0755
     47 H20        -6.2418   -1.9887    2.9636 H         1 <0>         0.0796
     48 H21        -4.6507   -1.7377    2.2062 H         1 <0>         0.0612
     49 H22        -9.4601   -3.5186   -2.5770 H         1 <0>         0.4010
     50 H23       -11.6335   -4.7287   -1.2395 H         1 <0>         0.0636
     51 H24       -12.0740   -3.0460   -1.6174 H         1 <0>         0.0636
     52 H25       -11.6585   -4.1736   -2.9305 H         1 <0>         0.0790
     53 H26         2.0568   -3.3175    0.0581 H         1 <0>         0.1457
     54 H27         3.8949   -4.9068   -0.8247 H         1 <0>         0.1993
     55 H28         1.3925   -2.4156   -4.1114 H         1 <0>         0.1890
     56 H29         0.6076   -0.7250   -3.2596 H         1 <0>         0.4204
@<TRIPOS>BOND
     1    1    2 1
     2    1   29 1
     3    1   30 1
     4    1   31 1
     5    2    3 1
     6    2   32 1
     7    2   33 1
     8    3    4 1
     9    3    6 1
    10    3   56 1
    11    4    5 1
    12    4   34 1
    13    4   35 1
    14    5   36 1
    15    5   37 1
    16    5   38 1
    17    6    7 1
    18    6    8 1
    19    6   24 1
    20    8    9 1
    21    8   39 1
    22    8   40 1
    23    9   10 am
    24    9   41 1
    25   10   11 2
    26   10   12 am
    27   12   13 1
    28   12   42 1
    29   13   18 ar
    30   13   14 ar
    31   14   15 ar
    32   14   43 1
    33   15   16 ar
    34   15   44 1
    35   16   17 ar
    36   16   20 1
    37   17   18 ar
    38   17   45 1
    39   18   19 1
    40   19   46 1
    41   19   47 1
    42   19   48 1
    43   20   21 2
    44   20   22 am
    45   22   23 1
    46   22   49 1
    47   23   50 1
    48   23   51 1
    49   23   52 1
    50   24   28 2
    51   24   25 1
    52   25   26 2
    53   25   53 1
    54   26   27 1
    55   26   54 1
    56   27   28 1
    57   28   55 1
@<TRIPOS>MOLECULE
ZINC59537040
   60    62     0     0     0
SMALL
USER_CHARGES

@<TRIPOS>ATOM
      1 C1          6.0249   -4.8401   -1.9219 C.3       1 <0>        -0.1268
      2 C2          4.5854   -5.0924   -1.5543 C.ar      1 <0>        -0.0532
      3 C3          4.2690   -6.0877   -0.6479 C.ar      1 <0>        -0.1105
      4 C4          2.9508   -6.3214   -0.3088 C.ar      1 <0>        -0.0691
      5 C5          1.9423   -5.5552   -0.8789 C.ar      1 <0>         0.0686
      6 C6          2.2636   -4.5559   -1.7886 C.ar      1 <0>        -0.1006
      7 C7          3.5842   -4.3242   -2.1197 C.ar      1 <0>        -0.1111
      8 N1          0.6065   -5.7895   -0.5381 N.pl3     1 <0>        -0.5578
      9 C8          0.2803   -6.1069    0.7305 C.2       1 <0>         0.2033
     10 S1          1.3947   -6.0662    1.8765 S.2       1 <0>        -0.3792
     11 C9         -1.1346   -6.5000    1.0689 C.3       1 <0>         0.0136
     12 N2         -1.1910   -6.9797    2.4562 N.4       1 <0>        -0.3715
     13 C10        -2.5931   -7.1226    2.8663 C.3       1 <0>        -0.0053
     14 C11        -2.6582   -7.5442    4.3358 C.3       1 <0>        -0.1366
     15 C12        -1.9350   -8.8827    4.5098 C.3       1 <0>        -0.1158
     16 C13        -0.4944   -8.7421    4.0096 C.3       1 <0>        -0.1393
     17 C14        -0.5094   -8.2762    2.5522 C.3       1 <0>        -0.0162
     18 C15        -1.9272   -9.2716    5.9895 C.3       1 <0>         0.1300
     19 N3         -1.3419  -10.6061    6.1407 N.pl3     1 <0>        -0.6898
     20 C16        -1.2312  -11.1587    7.3649 C.2       1 <0>         0.5497
     21 S2         -1.7746  -10.3011    8.7435 S.2       1 <0>        -0.5961
     22 N4         -0.6928  -12.3864    7.5040 N.pl3     1 <0>        -0.6237
     23 C17        -0.6885  -13.0105    8.7559 C.ar      1 <0>         0.1064
     24 C18        -1.7944  -12.9058    9.5895 C.ar      1 <0>        -0.0671
     25 C19        -1.7872  -13.5237   10.8247 C.ar      1 <0>        -0.1120
     26 C20        -0.6803  -14.2455   11.2319 C.ar      1 <0>        -0.0722
     27 C21         0.4225  -14.3517   10.4043 C.ar      1 <0>        -0.1153
     28 C22         0.4194  -13.7410    9.1655 C.ar      1 <0>        -0.1170
     29 C23        -0.6755  -14.9175   12.5808 C.3       1 <0>        -0.1203
     30 H1          6.4515   -4.1067   -1.2376 H         1 <0>         0.0808
     31 H2          6.5864   -5.7718   -1.8521 H         1 <0>         0.0741
     32 H3          6.0781   -4.4594   -2.9418 H         1 <0>         0.0741
     33 H4          5.0536   -6.6832   -0.2049 H         1 <0>         0.1357
     34 H5          2.7043   -7.0994    0.3986 H         1 <0>         0.1381
     35 H6          1.4817   -3.9584   -2.2337 H         1 <0>         0.1304
     36 H7          3.8349   -3.5446   -2.8239 H         1 <0>         0.1368
     37 H8         -0.0854   -5.7237   -1.2148 H         1 <0>         0.4174
     38 H9         -1.7887   -5.6354    0.9565 H         1 <0>         0.1643
     39 H10        -1.4620   -7.2931    0.3966 H         1 <0>         0.1596
     40 H11        -3.1073   -6.1700    2.7389 H         1 <0>         0.1360
     41 H12        -3.0761   -7.8805    2.2496 H         1 <0>         0.1307
     42 H13        -2.1756   -6.7867    4.9535 H         1 <0>         0.0990
     43 H14        -3.7000   -7.6514    4.6379 H         1 <0>         0.1223
     44 H15        -2.4478   -9.6519    3.9323 H         1 <0>         0.0968
     45 H16         0.0331   -8.0096    4.6206 H         1 <0>         0.1004
     46 H17         0.0105   -9.7057    4.0785 H         1 <0>         0.1067
     47 H18        -1.0369   -9.0095    1.9422 H         1 <0>         0.1250
     48 H19         0.5147   -8.1752    2.1929 H         1 <0>         0.1408
     49 H20        -1.3352   -8.5494    6.5518 H         1 <0>         0.0961
     50 H21        -2.9490   -9.2779    6.3689 H         1 <0>         0.0989
     51 H22        -1.0340  -11.0920    5.3596 H         1 <0>         0.3956
     52 H23        -0.3083  -12.8371    6.7360 H         1 <0>         0.4053
     53 H24        -2.6590  -12.3416    9.2723 H         1 <0>         0.1435
     54 H25        -2.6469  -13.4426   11.4734 H         1 <0>         0.1293
     55 H26         1.2854  -14.9162   10.7253 H         1 <0>         0.1289
     56 H27         1.2793  -13.8277    8.5179 H         1 <0>         0.1229
     57 H28        -1.0726  -15.9280   12.4847 H         1 <0>         0.0741
     58 H29         0.3453  -14.9629   12.9605 H         1 <0>         0.0689
     59 H30        -1.2956  -14.3477   13.2728 H         1 <0>         0.0701
     60 H31        -0.7322   -6.3142    3.0601 H         1 <0>         0.4325
@<TRIPOS>BOND
     1    1    2 1
     2    1   30 1
     3    1   31 1
     4    1   32 1
     5    2    7 ar
     6    2    3 ar
     7    3    4 ar
     8    3   33 1
     9    4    5 ar
    10    4   34 1
    11    5    6 ar
    12    5    8 1
    13    6    7 ar
    14    6   35 1
    15    7   36 1
    16    8    9 1
    17    8   37 1
    18    9   10 2
    19    9   11 1
    20   11   12 1
    21   11   38 1
    22   11   39 1
    23   12   17 1
    24   12   13 1
    25   12   60 1
    26   13   14 1
    27   13   40 1
    28   13   41 1
    29   14   15 1
    30   14   42 1
    31   14   43 1
    32   15   16 1
    33   15   18 1
    34   15   44 1
    35   16   17 1
    36   16   45 1
    37   16   46 1
    38   17   47 1
    39   17   48 1
    40   18   19 1
    41   18   49 1
    42   18   50 1
    43   19   20 1
    44   19   51 1
    45   20   21 2
    46   20   22 1
    47   22   23 1
    48   22   52 1
    49   23   28 ar
    50   23   24 ar
    51   24   25 ar
    52   24   53 1
    53   25   26 ar
    54   25   54 1
    55   26   27 ar
    56   26   29 1
    57   27   28 ar
    58   27   55 1
    59   28   56 1
    60   29   57 1
    61   29   58 1
    62   29   59 1
@<TRIPOS>MOLECULE
ZINC50631521
   60    62     0     0     0
SMALL
USER_CHARGES

@<TRIPOS>ATOM
      1 C1         -0.0163    1.3513    0.0095 C.2       1 <0>        -0.1804
      2 C2          1.1833    2.0380    0.0017 C.2       1 <0>        -0.0782
      3 C3          2.3426    1.3358   -0.0131 C.2       1 <0>        -0.2697
      4 S1          1.7535   -0.3495   -0.0166 S.3       1 <0>         0.0851
      5 C4          0.0021   -0.0041    0.0020 C.2       1 <0>        -0.1159
      6 C5          3.7608    1.8454   -0.0244 C.3       1 <0>         0.0977
      7 N1          4.2350    2.0040    1.3569 N.4       1 <0>        -0.3817
      8 C6          4.2911    0.6894    2.0074 C.3       1 <0>        -0.0163
      9 C7          4.7068    0.8573    3.4704 C.3       1 <0>        -0.1421
     10 C8          6.0872    1.5176    3.5306 C.3       1 <0>        -0.1361
     11 C9          6.0358    2.8542    2.7848 C.3       1 <0>        -0.1221
     12 C10         5.5709    2.6123    1.3472 C.3       1 <0>        -0.0015
     13 C11         7.4293    3.4858    2.7717 C.3       1 <0>         0.1284
     14 N2          7.8261    3.8218    4.1413 N.am      1 <0>        -0.7307
     15 C12         9.0243    4.3928    4.3749 C.2       1 <0>         0.5151
     16 O1          9.7741    4.6285    3.4512 O.2       1 <0>        -0.5251
     17 C13         9.4325    4.7383    5.7838 C.3       1 <0>         0.1217
     18 N3         10.7668    5.3432    5.7712 N.am      1 <0>        -0.7403
     19 C14        11.3400    5.7349    6.9264 C.2       1 <0>         0.7076
     20 O2         10.7498    5.5863    7.9790 O.2       1 <0>        -0.5892
     21 N4         12.5675    6.2913    6.9148 N.am      1 <0>        -0.7403
     22 C15        13.1906    6.7171    8.1705 C.3       1 <0>         0.1443
     23 C16        14.5703    7.3109    7.8795 C.3       1 <0>        -0.1058
     24 C17        15.5268    6.2070    7.3832 C.3       1 <0>        -0.1220
     25 C18        16.8927    6.5763    8.0133 C.3       1 <0>        -0.1267
     26 C19        16.4925    7.0957    9.4166 C.3       1 <0>        -0.1266
     27 C20        15.1843    7.8760    9.1724 C.3       1 <0>        -0.1179
     28 H1         -0.9542    1.8866    0.0258 H         1 <0>         0.1502
     29 H2          1.1967    3.1179    0.0070 H         1 <0>         0.1434
     30 H3         -0.8275   -0.6955    0.0065 H         1 <0>         0.2001
     31 H4          4.3986    1.1333   -0.5480 H         1 <0>         0.1410
     32 H5          3.7967    2.8084   -0.5337 H         1 <0>         0.1486
     33 H6          3.3088    0.2193    1.9609 H         1 <0>         0.1301
     34 H7          5.0183    0.0609    1.4934 H         1 <0>         0.1307
     35 H8          3.9800    1.4855    3.9855 H         1 <0>         0.0888
     36 H9          4.7495   -0.1200    3.9511 H         1 <0>         0.1154
     37 H10         6.3632    1.6910    4.5707 H         1 <0>         0.0956
     38 H11         6.8238    0.8660    3.0606 H         1 <0>         0.0878
     39 H12         5.3366    3.5238    3.2856 H         1 <0>         0.1041
     40 H13         6.2708    1.9428    0.8472 H         1 <0>         0.1357
     41 H14         5.5333    3.5618    0.8133 H         1 <0>         0.1371
     42 H15         8.1442    2.7799    2.3491 H         1 <0>         0.0819
     43 H16         7.4118    4.3918    2.1659 H         1 <0>         0.0814
     44 H17         7.2264    3.6332    4.8801 H         1 <0>         0.4067
     45 H18         8.7176    5.4443    6.2064 H         1 <0>         0.1009
     46 H19         9.4500    3.8323    6.3896 H         1 <0>         0.1009
     47 H20        11.2377    5.4617    4.9315 H         1 <0>         0.4081
     48 H21        13.0384    6.4098    6.0751 H         1 <0>         0.3984
     49 H22        12.5647    7.4699    8.6497 H         1 <0>         0.0682
     50 H23        13.2971    5.8580    8.8329 H         1 <0>         0.0698
     51 H24        14.4871    8.0984    7.1304 H         1 <0>         0.0791
     52 H25        15.1963    5.2296    7.7347 H         1 <0>         0.0687
     53 H26        15.5925    6.2200    6.2953 H         1 <0>         0.0643
     54 H27        17.5311    5.6966    8.0946 H         1 <0>         0.0673
     55 H28        17.3845    7.3601    7.4372 H         1 <0>         0.0678
     56 H29        16.3180    6.2618   10.0965 H         1 <0>         0.0667
     57 H30        17.2630    7.7572    9.8126 H         1 <0>         0.0676
     58 H31        15.3999    8.9374    9.0504 H         1 <0>         0.0692
     59 H32        14.4994    7.7271   10.0071 H         1 <0>         0.0694
     60 H33         3.5985    2.6008    1.8636 H         1 <0>         0.4238
@<TRIPOS>BOND
     1    1    5 2
     2    1    2 1
     3    1   28 1
     4    2    3 2
     5    2   29 1
     6    3    4 1
     7    3    6 1
     8    4    5 1
     9    5   30 1
    10    6    7 1
    11    6   31 1
    12    6   32 1
    13    7   12 1
    14    7    8 1
    15    7   60 1
    16    8    9 1
    17    8   33 1
    18    8   34 1
    19    9   10 1
    20    9   35 1
    21    9   36 1
    22   10   11 1
    23   10   37 1
    24   10   38 1
    25   11   12 1
    26   11   13 1
    27   11   39 1
    28   12   40 1
    29   12   41 1
    30   13   14 1
    31   13   42 1
    32   13   43 1
    33   14   15 am
    34   14   44 1
    35   15   16 2
    36   15   17 1
    37   17   18 1
    38   17   45 1
    39   17   46 1
    40   18   19 am
    41   18   47 1
    42   19   20 2
    43   19   21 am
    44   21   22 1
    45   21   48 1
    46   22   23 1
    47   22   49 1
    48   22   50 1
    49   23   27 1
    50   23   24 1
    51   23   51 1
    52   24   25 1
    53   24   52 1
    54   24   53 1
    55   25   26 1
    56   25   54 1
    57   25   55 1
    58   26   27 1
    59   26   56 1
    60   26   57 1
    61   27   58 1
    62   27   59 1
@<TRIPOS>MOLECULE
ZINC08920937
   64    66     0     0     0
SMALL
USER_CHARGES
N-[9-(acetylaminocarbamoyl)-4-isopropyl-7-thia-4-azabicyclo[4.3.0]nona-8,10-dien-8-yl]-4-(dimethylsulfamoyl)benzamide
@<TRIPOS>ATOM
      1 C1          6.4300    5.7519   -1.2693 C.3       1 <0>        -0.1839
      2 C2          6.4126    5.2776    0.1852 C.3       1 <0>         0.0294
      3 C3          6.0136    6.4404    1.0960 C.3       1 <0>        -0.1868
      4 C4          5.8267    3.0249   -0.4836 C.3       1 <0>         0.0017
      5 C5          5.0408    1.7869   -0.0413 C.3       1 <0>        -0.0911
      6 C6          3.5598    2.1469   -0.0215 C.2       1 <0>        -0.0372
      7 C7          3.1770    3.4441   -0.0106 C.2       1 <0>        -0.3131
      8 S1          1.4091    3.3927   -0.0009 S.3       1 <0>         0.3411
      9 C8          1.1792    1.6748   -0.0002 C.2       1 <0>         0.1076
     10 C9          2.4775    1.1812   -0.0153 C.2       1 <0>        -0.2303
     11 C10         2.7436   -0.2605   -0.0249 C.2       1 <0>         0.5725
     12 O1          2.8434   -0.8539   -1.0829 O.2       1 <0>        -0.5176
     13 N1          2.8778   -0.9288    1.1378 N.am      1 <0>        -0.5149
     14 N2          3.1321   -2.3065    1.1286 N.am      1 <0>        -0.5293
     15 C11         3.2663   -2.9748    2.2912 C.2       1 <0>         0.5156
     16 O2          3.1669   -2.3836    3.3455 O.2       1 <0>        -0.5389
     17 C12         3.5399   -4.4568    2.2813 C.3       1 <0>        -0.1645
     18 N3         -0.0111    0.9658    0.0074 N.am      1 <0>        -0.6153
     19 C13        -1.1873    1.6238    0.0165 C.2       1 <0>         0.5625
     20 O3         -1.2038    2.8392    0.0232 O.2       1 <0>        -0.4797
     21 C14        -2.4570    0.8675    0.0184 C.ar      1 <0>        -0.0935
     22 C15        -2.4417   -0.5284    0.0050 C.ar      1 <0>        -0.1030
     23 C16        -3.6305   -1.2282    0.0131 C.ar      1 <0>        -0.0234
     24 C17        -4.8363   -0.5496    0.0221 C.ar      1 <0>        -0.6446
     25 C18        -4.8587    0.8339    0.0297 C.ar      1 <0>        -0.0222
     26 C19        -3.6771    1.5459    0.0279 C.ar      1 <0>        -0.0667
     27 S2         -6.3501   -1.4512    0.0244 S.o2      1 <0>         2.6865
     28 O4         -6.0592   -2.7320    0.5670 O.2       1 <0>        -0.9424
     29 O5         -7.3337   -0.5921    0.5846 O.2       1 <0>        -0.9421
     30 N4         -6.7783   -1.6932   -1.5568 N.pl3     1 <0>        -1.0014
     31 C20        -6.3185   -2.8903   -2.2653 C.3       1 <0>         0.0891
     32 C21        -7.6169   -0.7103   -2.2473 C.3       1 <0>         0.0807
     33 C22         4.0806    4.6372   -0.0123 C.3       1 <0>         0.1006
     34 H1          5.4379    6.1074   -1.5475 H         1 <0>         0.0816
     35 H2          7.1504    6.5626   -1.3785 H         1 <0>         0.1072
     36 H3          6.7142    4.9234   -1.9182 H         1 <0>         0.0816
     37 H4          7.4047    4.9220    0.4634 H         1 <0>         0.1398
     38 H5          6.0012    6.1025    2.1323 H         1 <0>         0.0822
     39 H6          6.7340    7.2511    0.9868 H         1 <0>         0.1076
     40 H7          5.0215    6.7960    0.8179 H         1 <0>         0.0822
     41 H8          5.6134    3.2337   -1.5319 H         1 <0>         0.1361
     42 H9          6.8933    2.8358   -0.3624 H         1 <0>         0.1381
     43 H10         5.3592    1.4847    0.9564 H         1 <0>         0.1073
     44 H11         5.2121    0.9725   -0.7452 H         1 <0>         0.1249
     45 H12         2.7983   -0.4560    1.9810 H         1 <0>         0.4332
     46 H13         3.2117   -2.7794    0.2854 H         1 <0>         0.4350
     47 H14         4.6164   -4.6274    2.2696 H         1 <0>         0.1051
     48 H15         3.1096   -4.9116    3.1735 H         1 <0>         0.1078
     49 H16         3.0916   -4.9031    1.3937 H         1 <0>         0.0889
     50 H17         0.0021   -0.0041    0.0020 H         1 <0>         0.4266
     51 H18        -1.5012   -1.0592   -0.0069 H         1 <0>         0.1337
     52 H19        -3.6201   -2.3081    0.0080 H         1 <0>         0.1537
     53 H20        -5.8032    1.3574    0.0374 H         1 <0>         0.1565
     54 H21        -3.6960    2.6257    0.0342 H         1 <0>         0.1540
     55 H22        -7.0465   -3.6912   -2.1358 H         1 <0>         0.0674
     56 H23        -6.2105   -2.6655   -3.3263 H         1 <0>         0.0782
     57 H24        -5.3565   -3.2049   -1.8607 H         1 <0>         0.0716
     58 H25        -7.8577    0.1050   -1.5651 H         1 <0>         0.0872
     59 H26        -7.0793   -0.3158   -3.1095 H         1 <0>         0.0651
     60 H27        -8.5377   -1.1887   -2.5810 H         1 <0>         0.0737
     61 H28         4.0844    5.0942   -1.0019 H         1 <0>         0.1469
     62 H29         3.7355    5.3609    0.7262 H         1 <0>         0.1434
     63 N5          5.4409    4.1763    0.3580 N.4       1 <0>        -0.3926
     64 H30         5.4385    3.8848    1.3425 H         1 <0>         0.4306
@<TRIPOS>BOND
     1    1    2 1
     2    1   34 1
     3    1   35 1
     4    1   36 1
     5    2    3 1
     6    2   37 1
     7    2   63 1
     8    3   38 1
     9    3   39 1
    10    3   40 1
    11    4    5 1
    12    4   41 1
    13    4   42 1
    14    4   63 1
    15    5    6 1
    16    5   43 1
    17    5   44 1
    18    6   10 1
    19    6    7 2
    20    7    8 1
    21    7   33 1
    22    8    9 1
    23    9   10 2
    24    9   18 1
    25   10   11 1
    26   11   12 2
    27   11   13 am
    28   13   14 1
    29   13   45 1
    30   14   15 am
    31   14   46 1
    32   15   16 2
    33   15   17 1
    34   17   47 1
    35   17   48 1
    36   17   49 1
    37   18   19 am
    38   18   50 1
    39   19   20 2
    40   19   21 1
    41   21   26 ar
    42   21   22 ar
    43   22   23 ar
    44   22   51 1
    45   23   24 ar
    46   23   52 1
    47   24   25 ar
    48   24   27 1
    49   25   26 ar
    50   25   53 1
    51   26   54 1
    52   27   28 2
    53   27   29 2
    54   27   30 1
    55   30   31 1
    56   30   32 1
    57   31   55 1
    58   31   56 1
    59   31   57 1
    60   32   58 1
    61   32   59 1
    62   32   60 1
    63   33   61 1
    64   33   62 1
    65   33   63 1
    66   63   64 1
@<TRIPOS>MOLECULE
ZINC21579684
   53    54     0     0     0
SMALL
USER_CHARGES
2-[[2-[(4-bromo-2-methyl-phenyl)amino]-2-oxo-ethyl]-methyl-amino]-N-[(4R)-4-ethyl-4-methyl-2,5-dioxo-imidazolidin-1-yl]acetamide
@<TRIPOS>ATOM
      1 C1          2.5719    0.2267    1.2394 C.3       1 <0>        -0.1577
      2 C2          2.0543    1.6664    1.2245 C.3       1 <0>        -0.1200
      3 C3          1.1891    1.8845   -0.0183 C.3       1 <0>         0.1248
      4 C4          0.5751    3.2704   -0.0082 C.2       1 <0>         0.5319
      5 O1          1.1617    4.3313   -0.0165 O.2       1 <0>        -0.4438
      6 N1         -0.7586    3.0778    0.0129 N.am      1 <0>        -0.3771
      7 C5         -1.0694    1.7765    0.0123 C.2       1 <0>         0.7177
      8 O2         -2.2089    1.3540    0.0248 O.2       1 <0>        -0.5305
      9 N2          0.0204    0.9879   -0.0001 N.am      1 <0>        -0.7164
     10 N3         -1.7030    4.1125    0.0274 N.am      1 <0>        -0.4959
     11 C6         -2.3981    4.4062   -1.0894 C.2       1 <0>         0.5107
     12 O3         -2.2060    3.7747   -2.1068 O.2       1 <0>        -0.5013
     13 C7         -3.4140    5.5192   -1.0738 C.3       1 <0>        -0.0157
     14 N4         -4.0298    5.6387   -2.4021 N.4       1 <0>        -0.3785
     15 C8         -4.8238    4.4453   -2.7236 C.3       1 <0>        -0.0648
     16 C9         -4.8471    6.8558   -2.4958 C.3       1 <0>        -0.0262
     17 C10        -5.2595    7.0748   -3.9287 C.2       1 <0>         0.5014
     18 O4         -4.9072    6.2939   -4.7873 O.2       1 <0>        -0.5070
     19 N5         -6.0198    8.1384   -4.2561 N.am      1 <0>        -0.6537
     20 C11        -6.3065    8.4067   -5.5994 C.ar      1 <0>         0.1429
     21 C12        -5.4530    7.9534   -6.5969 C.ar      1 <0>        -0.1177
     22 C13        -5.7383    8.2196   -7.9215 C.ar      1 <0>        -0.0748
     23 C14        -6.8734    8.9372   -8.2555 C.ar      1 <0>        -0.0928
     24 C15        -7.7253    9.3899   -7.2639 C.ar      1 <0>        -0.0698
     25 C16        -7.4477    9.1216   -5.9376 C.ar      1 <0>        -0.0967
     26 C17        -8.3797    9.6093   -4.8584 C.3       1 <0>        -0.1220
     27 Br1        -7.2604    9.3003  -10.0705 Br        1 <0>        -0.0326
     28 C18         2.0125    1.6698   -1.2899 C.3       1 <0>        -0.1554
     29 H1          3.1940    0.0700    2.1330 H         1 <0>         0.0738
     30 H2          3.1738    0.0441    0.3370 H         1 <0>         0.0691
     31 H3          1.7201   -0.4690    1.2590 H         1 <0>         0.0589
     32 H4          1.4524    1.8490    2.1269 H         1 <0>         0.0765
     33 H5          2.9061    2.3621    1.2050 H         1 <0>         0.0950
     34 H6          0.1638   -0.1027    0.0010 H         1 <0>         0.4796
     35 H7         -1.8772    4.6852    0.9502 H         1 <0>         0.4653
     36 H8         -4.1912    5.2958   -0.3281 H         1 <0>         0.1706
     37 H9         -2.9172    6.4655   -0.8134 H         1 <0>         0.1722
     38 H10        -5.2725    4.5613   -3.7212 H         1 <0>         0.1421
     39 H11        -5.6206    4.3225   -1.9752 H         1 <0>         0.1183
     40 H12        -4.1729    3.5586   -2.7151 H         1 <0>         0.1413
     41 H13        -5.7441    6.7442   -1.8690 H         1 <0>         0.1655
     42 H14        -4.2610    7.7188   -2.1469 H         1 <0>         0.1681
     43 H15        -6.4150    8.7956   -3.4675 H         1 <0>         0.4470
     44 H16        -4.5671    7.3930   -6.3369 H         1 <0>         0.1511
     45 H17        -5.0751    7.8671   -8.6976 H         1 <0>         0.1407
     46 H18        -8.6107    9.9494   -7.5273 H         1 <0>         0.1429
     47 H19        -9.2203   10.1507   -5.3170 H         1 <0>         0.0819
     48 H20        -7.8352   10.2835   -4.1809 H         1 <0>         0.0736
     49 H21        -8.7638    8.7497   -4.2897 H         1 <0>         0.0737
     50 H22         1.3745    1.8307   -2.1714 H         1 <0>         0.0697
     51 H23         2.4045    0.6421   -1.3037 H         1 <0>         0.0936
     52 H24         2.8504    2.3822   -1.3088 H         1 <0>         0.0896
     53 H25        -3.2212    5.7165   -3.1438 H         1 <0>         0.4611
@<TRIPOS>BOND
     1    1    2 1
     2    1   29 1
     3    1   30 1
     4    1   31 1
     5    2    3 1
     6    2   32 1
     7    2   33 1
     8    3    9 1
     9    3    4 1
    10    3   28 1
    11    4    5 2
    12    4    6 am
    13    6    7 am
    14    6   10 1
    15    7    8 2
    16    7    9 am
    17    9   34 1
    18   10   11 am
    19   10   35 1
    20   11   12 2
    21   11   13 1
    22   13   14 1
    23   13   36 1
    24   13   37 1
    25   14   15 1
    26   14   16 1
    27   14   53 1
    28   15   38 1
    29   15   39 1
    30   15   40 1
    31   16   17 1
    32   16   41 1
    33   16   42 1
    34   17   18 2
    35   17   19 am
    36   19   20 1
    37   19   43 1
    38   20   25 ar
    39   20   21 ar
    40   21   22 ar
    41   21   44 1
    42   22   23 ar
    43   22   45 1
    44   23   24 ar
    45   23   27 1
    46   24   25 ar
    47   24   46 1
    48   25   26 1
    49   26   47 1
    50   26   48 1
    51   26   49 1
    52   28   50 1
    53   28   51 1
    54   28   52 1
@<TRIPOS>MOLECULE
ZINC39655568
   67    71     0     0     0
SMALL
USER_CHARGES

@<TRIPOS>ATOM
      1 C1          5.4373    1.4939   -6.2194 C.ar      1 <0>        -0.1709
      2 C2          5.5732    2.1825   -5.0279 C.ar      1 <0>        -0.0707
      3 C3          5.7297    1.4908   -3.8428 C.ar      1 <0>        -0.1896
      4 C4          5.7506    0.1019   -3.8487 C.ar      1 <0>         0.2079
      5 C5          5.6139   -0.5867   -5.0473 C.ar      1 <0>        -0.1977
      6 C6          5.4577    0.1112   -6.2288 C.ar      1 <0>        -0.0744
      7 N1          5.9092   -0.6008   -2.6520 N.pl3     1 <0>        -0.7504
      8 C7          5.9310   -2.0656   -2.6600 C.3       1 <0>         0.1188
      9 C8          6.1153   -2.5807   -1.2312 C.3       1 <0>         0.1057
     10 N2          6.1371   -4.0456   -1.2392 N.am      1 <0>        -0.7244
     11 C9          6.2901   -4.7236   -0.0845 C.2       1 <0>         0.5219
     12 O1          6.4098   -4.1210    0.9612 O.2       1 <0>        -0.5156
     13 C10         6.3125   -6.2304   -0.0928 C.3       1 <0>        -0.1127
     14 H1          5.7136   -6.6136   -0.9189 H         1 <0>         0.1160
     15 C11         5.7904   -6.7836    1.2522 C.3       1 <0>         0.1004
     16 N3          6.6352   -7.9708    1.5221 N.am      1 <0>        -0.6217
     17 C12         7.9931   -7.5632    1.0883 C.3       1 <0>         0.1109
     18 C13         7.7584   -6.7438   -0.1963 C.3       1 <0>        -0.0728
     19 C14         7.9166   -7.6332   -1.4259 C.3       1 <0>        -0.1347
     20 C15         9.3753   -8.0852   -1.5387 C.3       1 <0>        -0.0115
     21 N4         10.2470   -6.9089   -1.6453 N.4       1 <0>        -0.5046
     22 C16        10.1585   -6.1070   -0.4192 C.3       1 <0>        -0.0080
     23 C17         8.7328   -5.5716   -0.2588 C.3       1 <0>        -0.1471
     24 C18         6.2551   -9.1538    2.0440 C.2       1 <0>         0.5535
     25 O2          7.0718  -10.0357    2.2058 O.2       1 <0>        -0.4941
     26 C19         4.8152   -9.3808    2.4265 C.3       1 <0>         0.0388
     27 H2          4.1715   -9.1803    1.5700 H         1 <0>         0.1112
     28 C20         4.4356   -8.4519    3.5877 C.3       1 <0>         0.0323
     29 O3          3.0693   -8.7029    3.9342 O.3       1 <0>        -0.2964
     30 C21         2.6985  -10.0070    4.0539 C.ar      1 <0>         0.0427
     31 C22         1.5263  -10.3226    4.7249 C.ar      1 <0>        -0.1083
     32 C23         1.1349  -11.6419    4.8518 C.ar      1 <0>        -0.1089
     33 C24         1.9102  -12.6505    4.3106 C.ar      1 <0>        -0.1090
     34 C25         3.0800  -12.3430    3.6421 C.ar      1 <0>        -0.1072
     35 C26         3.4792  -11.0211    3.5122 C.ar      1 <0>         0.0461
     36 O4          4.6378  -10.7345    2.8574 O.3       1 <0>        -0.2801
     37 H3          5.3106    2.0371   -7.1442 H         1 <0>         0.1215
     38 H4          5.5572    3.2623   -5.0241 H         1 <0>         0.1245
     39 H5          5.8361    2.0292   -2.9127 H         1 <0>         0.1211
     40 H6          5.6300   -1.6665   -5.0554 H         1 <0>         0.1157
     41 H7          5.3514   -0.4235   -7.1611 H         1 <0>         0.1217
     42 H8          6.0049   -0.1189   -1.8156 H         1 <0>         0.4029
     43 H9          4.9902   -2.4408   -3.0630 H         1 <0>         0.0665
     44 H10         6.7566   -2.4133   -3.2809 H         1 <0>         0.0620
     45 H11         7.0560   -2.2056   -0.8282 H         1 <0>         0.0787
     46 H12         5.2897   -2.2330   -0.6103 H         1 <0>         0.0817
     47 H13         6.0414   -4.5275   -2.0756 H         1 <0>         0.4031
     48 H14         5.9136   -6.0421    2.0416 H         1 <0>         0.1076
     49 H15         4.7437   -7.0744    1.1628 H         1 <0>         0.0963
     50 H16         8.4677   -6.9473    1.8522 H         1 <0>         0.0902
     51 H17         8.6029   -8.4406    0.8727 H         1 <0>         0.0929
     52 H18         7.2715   -8.5064   -1.3288 H         1 <0>         0.1189
     53 H19         7.6392   -7.0726   -2.3186 H         1 <0>         0.0980
     54 H20         9.6470   -8.6595   -0.6530 H         1 <0>         0.1345
     55 H21         9.4950   -8.7075   -2.4255 H         1 <0>         0.1411
     56 H22        11.2005   -7.2098   -1.7807 H         1 <0>         0.4353
     57 H23        10.4119   -6.7281    0.4400 H         1 <0>         0.1341
     58 H24        10.8554   -5.2712   -0.4809 H         1 <0>         0.1403
     59 H25         8.4846   -4.9370   -1.1095 H         1 <0>         0.0975
     60 H26         8.6634   -4.9913    0.6613 H         1 <0>         0.1269
     61 H27         5.0760   -8.6558    4.4459 H         1 <0>         0.0864
     62 H28         4.5519   -7.4127    3.2802 H         1 <0>         0.1247
     63 H29         0.9192   -9.5366    5.1490 H         1 <0>         0.1388
     64 H30         0.2219  -11.8854    5.3748 H         1 <0>         0.1379
     65 H31         1.6014  -13.6806    4.4108 H         1 <0>         0.1379
     66 H32         3.6838  -13.1329    3.2202 H         1 <0>         0.1380
     67 H33         9.9588   -6.3488   -2.4335 H         1 <0>         0.4278
@<TRIPOS>BOND
     1    1    6 ar
     2    1    2 ar
     3    1   37 1
     4    2    3 ar
     5    2   38 1
     6    3    4 ar
     7    3   39 1
     8    4    5 ar
     9    4    7 1
    10    5    6 ar
    11    5   40 1
    12    6   41 1
    13    7    8 1
    14    7   42 1
    15    8    9 1
    16    8   43 1
    17    8   44 1
    18    9   10 1
    19    9   45 1
    20    9   46 1
    21   10   11 am
    22   10   47 1
    23   11   12 2
    24   11   13 1
    25   13   14 1
    26   13   18 1
    27   13   15 1
    28   15   16 1
    29   15   48 1
    30   15   49 1
    31   16   17 1
    32   16   24 am
    33   17   18 1
    34   17   50 1
    35   17   51 1
    36   18   23 1
    37   18   19 1
    38   19   20 1
    39   19   52 1
    40   19   53 1
    41   20   21 1
    42   20   54 1
    43   20   55 1
    44   21   22 1
    45   21   56 1
    46   21   67 1
    47   22   23 1
    48   22   57 1
    49   22   58 1
    50   23   59 1
    51   23   60 1
    52   24   25 2
    53   24   26 1
    54   26   27 1
    55   26   36 1
    56   26   28 1
    57   28   29 1
    58   28   61 1
    59   28   62 1
    60   29   30 1
    61   30   35 ar
    62   30   31 ar
    63   31   32 ar
    64   31   63 1
    65   32   33 ar
    66   32   64 1
    67   33   34 ar
    68   33   65 1
    69   34   35 ar
    70   34   66 1
    71   35   36 1
@<TRIPOS>MOLECULE
ZINC44714138
   65    68     0     0     0
SMALL
USER_CHARGES

@<TRIPOS>ATOM
      1 C1          0.1598    1.3865    0.7982 C.3       1 <0>        -0.0872
      2 C2          0.0834   -0.0548    0.3648 C.2       1 <0>         0.0460
      3 C3         -0.9419   -0.8862    0.6055 C.2       1 <0>        -0.2002
      4 C4         -0.5704   -2.1724   -0.0022 C.2       1 <0>        -0.1610
      5 C5          0.6614   -1.9755   -0.5543 C.2       1 <0>        -0.0385
      6 O1          1.0275   -0.7100   -0.3286 O.3       1 <0>        -0.1399
      7 C6          1.4697   -3.0078   -1.2974 C.3       1 <0>         0.5494
      8 F1          1.1531   -2.9562   -2.6591 F         1 <0>        -0.1645
      9 F2          2.8330   -2.7451   -1.1252 F         1 <0>        -0.1632
     10 F3          1.1732   -4.2804   -0.7976 F         1 <0>        -0.1267
     11 C7         -1.3631   -3.4148   -0.0127 C.2       1 <0>         0.6070
     12 O2         -0.8062   -4.4905   -0.1198 O.2       1 <0>        -0.5023
     13 N1         -2.7053   -3.3587    0.0965 N.am      1 <0>        -0.6139
     14 C8         -3.5652   -2.1520    0.1174 C.3       1 <0>         0.1052
     15 C9         -4.8073   -2.5434   -0.7142 C.3       1 <0>        -0.1157
     16 H1         -4.6902   -2.2175   -1.7477 H         1 <0>         0.1131
     17 C10        -4.8616   -4.0785   -0.6397 C.3       1 <0>        -0.0726
     18 C11        -3.6553   -4.4905    0.2163 C.3       1 <0>         0.1106
     19 C12        -4.7397   -4.6800   -2.0365 C.3       1 <0>        -0.1355
     20 C13        -4.8536   -6.2041   -1.9424 C.3       1 <0>        -0.0115
     21 N2         -6.1447   -6.5640   -1.3438 N.4       1 <0>        -0.5049
     22 C14        -6.2162   -6.0604    0.0331 C.3       1 <0>        -0.0078
     23 C15        -6.1596   -4.5302    0.0227 C.3       1 <0>        -0.1474
     24 C16        -6.0518   -1.9422   -0.1133 C.2       1 <0>         0.5213
     25 O3         -6.0827   -1.6660    1.0672 O.2       1 <0>        -0.5204
     26 N3         -7.1303   -1.7115   -0.8879 N.am      1 <0>        -0.7206
     27 C17        -8.3401   -1.1270   -0.3038 C.3       1 <0>         0.2263
     28 H2         -8.4661   -1.4948    0.7145 H         1 <0>         0.0960
     29 C18        -8.2113    0.3974   -0.2832 C.3       1 <0>        -0.1625
     30 C19        -9.5372   -1.5189   -1.1311 C.2       1 <0>        -0.2599
     31 C20       -10.7264   -1.9543   -0.6543 C.2       1 <0>         0.1136
     32 N4        -11.5286   -2.1991   -1.7115 N.pl3     1 <0>        -0.4691
     33 H3        -12.4425   -2.5218   -1.6717 H         1 <0>         0.4434
     34 N5        -10.8086   -1.9045   -2.8765 N.2       1 <0>        -0.2832
     35 C21        -9.6173   -1.4912   -2.5272 C.2       1 <0>         0.0842
     36 C22        -8.5197   -1.0635   -3.4670 C.3       1 <0>        -0.0873
     37 C23       -11.0898   -2.1336    0.7972 C.3       1 <0>        -0.1036
     38 H4          1.1028    1.8176    0.4618 H         1 <0>         0.0884
     39 H5         -0.6700    1.9419    0.3610 H         1 <0>         0.0994
     40 H6          0.1020    1.4426    1.8852 H         1 <0>         0.1003
     41 H7         -1.8536   -0.6574    1.1373 H         1 <0>         0.1728
     42 H8         -3.8538   -1.9086    1.1400 H         1 <0>         0.1044
     43 H9         -3.0493   -1.3096   -0.3435 H         1 <0>         0.0982
     44 H10        -3.2083   -5.4052   -0.1730 H         1 <0>         0.0925
     45 H11        -3.9571   -4.6256    1.2549 H         1 <0>         0.0878
     46 H12        -5.5382   -4.2937   -2.6700 H         1 <0>         0.0965
     47 H13        -3.7734   -4.4130   -2.4645 H         1 <0>         0.1193
     48 H14        -4.7834   -6.6358   -2.9409 H         1 <0>         0.1404
     49 H15        -4.0453   -6.5911   -1.3220 H         1 <0>         0.1353
     50 H16        -6.8911   -6.1581   -1.8881 H         1 <0>         0.4274
     51 H17        -7.1504   -6.3861    0.4908 H         1 <0>         0.1385
     52 H18        -5.3756   -6.4510    0.6066 H         1 <0>         0.1339
     53 H19        -6.1944   -4.1578    1.0465 H         1 <0>         0.1259
     54 H20        -7.0091   -4.1384   -0.5367 H         1 <0>         0.0994
     55 H21        -7.1056   -1.9324   -1.8321 H         1 <0>         0.3988
     56 H22        -7.3455    0.6809    0.3151 H         1 <0>         0.0651
     57 H23        -8.0853    0.7652   -1.3016 H         1 <0>         0.0606
     58 H24        -9.1114    0.8322    0.1513 H         1 <0>         0.0697
     59 H25        -7.9113   -1.9280   -3.7326 H         1 <0>         0.0734
     60 H26        -8.9591   -0.6376   -4.3690 H         1 <0>         0.0839
     61 H27        -7.8947   -0.3154   -2.9792 H         1 <0>         0.0826
     62 H28       -11.5183   -1.2080    1.1814 H         1 <0>         0.0900
     63 H29       -11.8186   -2.9384    0.8925 H         1 <0>         0.0765
     64 H30       -10.1953   -2.3840    1.3674 H         1 <0>         0.0882
     65 H31        -6.2434   -7.5681   -1.3388 H         1 <0>         0.4343
@<TRIPOS>BOND
     1    1    2 1
     2    1   38 1
     3    1   39 1
     4    1   40 1
     5    2    6 1
     6    2    3 2
     7    3    4 1
     8    3   41 1
     9    4    5 2
    10    4   11 1
    11    5    6 1
    12    5    7 1
    13    7    8 1
    14    7    9 1
    15    7   10 1
    16   11   12 2
    17   11   13 am
    18   13   18 1
    19   13   14 1
    20   14   15 1
    21   14   42 1
    22   14   43 1
    23   15   16 1
    24   15   17 1
    25   15   24 1
    26   17   23 1
    27   17   18 1
    28   17   19 1
    29   18   44 1
    30   18   45 1
    31   19   20 1
    32   19   46 1
    33   19   47 1
    34   20   21 1
    35   20   48 1
    36   20   49 1
    37   21   22 1
    38   21   50 1
    39   21   65 1
    40   22   23 1
    41   22   51 1
    42   22   52 1
    43   23   53 1
    44   23   54 1
    45   24   25 2
    46   24   26 am
    47   26   27 1
    48   26   55 1
    49   27   28 1
    50   27   29 1
    51   27   30 1
    52   29   56 1
    53   29   57 1
    54   29   58 1
    55   30   35 1
    56   30   31 2
    57   31   32 1
    58   31   37 1
    59   32   33 1
    60   32   34 1
    61   34   35 2
    62   35   36 1
    63   36   59 1
    64   36   60 1
    65   36   61 1
    66   37   62 1
    67   37   63 1
    68   37   64 1
@<TRIPOS>MOLECULE
ZINC63514058
   64    69     0     0     0
SMALL
USER_CHARGES

@<TRIPOS>ATOM
      1 C1         -0.1781    1.4245   -0.0911 C.3       1 <0>         0.0197
      2 O1         -0.1646   -0.0044   -0.1020 O.3       1 <0>        -0.2948
      3 C2          0.5221   -0.6077   -1.1090 C.ar      1 <0>         0.1295
      4 C3          1.1734    0.1590   -2.0619 C.ar      1 <0>        -0.1737
      5 C4          1.8715   -0.4559   -3.0845 C.ar      1 <0>        -0.0643
      6 C5          1.9213   -1.8355   -3.1596 C.ar      1 <0>        -0.1750
      7 C6          1.2734   -2.6062   -2.2124 C.ar      1 <0>        -0.1398
      8 C7          0.5771   -1.9962   -1.1813 C.ar      1 <0>         0.1397
      9 O2         -0.0558   -2.7530   -0.2452 O.3       1 <0>        -0.4654
     10 C8          1.3295   -4.1097   -2.2977 C.3       1 <0>         0.1243
     11 H1          0.4154   -4.5441   -1.8929 H         1 <0>         0.1721
     12 C9          2.5395   -4.6341   -1.5426 C.3       1 <0>        -0.1306
     13 H2          2.3982   -5.6598   -1.2020 H         1 <0>         0.1726
     14 C10         3.6070   -4.5065   -2.6957 C.3       1 <0>        -0.1581
     15 H3          3.5807   -3.4502   -2.9636 H         1 <0>         0.1148
     16 C11         4.8438   -4.6095   -1.9623 C.2       1 <0>         0.5818
     17 O3          5.8809   -5.1161   -2.3329 O.2       1 <0>        -0.4066
     18 N1          4.5930   -4.0090   -0.7533 N.am      1 <0>        -0.5360
     19 C12         3.2512   -3.7952   -0.5280 C.2       1 <0>         0.5532
     20 O4          2.7475   -3.0775    0.3091 O.2       1 <0>        -0.4010
     21 C13         5.5948   -3.6592    0.1629 C.ar      1 <0>         0.1170
     22 C14         6.9273   -3.9123   -0.1331 C.ar      1 <0>        -0.1389
     23 C15         7.9121   -3.5666    0.7716 C.ar      1 <0>        -0.0945
     24 C16         7.5718   -2.9690    1.9712 C.ar      1 <0>        -0.1209
     25 C17         6.2455   -2.7156    2.2689 C.ar      1 <0>        -0.0950
     26 C18         5.2567   -3.0539    1.3657 C.ar      1 <0>        -0.1391
     27 C19         2.9096   -5.1382   -3.8286 C.3       1 <0>         0.0309
     28 N2          1.5221   -4.5399   -3.7156 N.4       1 <0>        -0.5134
     29 C20         3.5583   -4.7415   -5.1563 C.3       1 <0>        -0.0887
     30 C21         2.7502   -5.3028   -6.2978 C.2       1 <0>         0.0513
     31 C22         1.7847   -4.6673   -7.0003 C.ar      1 <0>        -0.1752
     32 C23         1.2189   -3.3157   -6.9145 C.ar      1 <0>        -0.0597
     33 C24         0.2376   -2.9595   -7.7743 C.ar      1 <0>        -0.1189
     34 C25        -0.2517   -3.8469   -8.7427 C.ar      1 <0>         0.0379
     35 C26         0.2178   -5.1047   -8.8829 C.ar      1 <0>        -0.1895
     36 C27         1.2510   -5.5852   -8.0319 C.ar      1 <0>         0.3279
     37 N3          1.8627   -6.7430   -7.9696 N.pl3     1 <0>        -0.5598
     38 C28         2.8591   -6.6884   -6.8940 C.3       1 <0>         0.0554
     39 C29         2.8804   -6.6367   -3.6715 C.2       1 <0>         0.4950
     40 O5          1.8128   -7.2226   -3.6109 O.co2     1 <0>        -0.6473
     41 O6          3.9242   -7.2632   -3.6050 O.co2     1 <0>        -0.5882
     42 H4          0.8434    1.7969   -0.0131 H         1 <0>         0.0627
     43 H5         -0.6289    1.7907   -1.0135 H         1 <0>         0.0618
     44 H6         -0.7590    1.7759    0.7616 H         1 <0>         0.1124
     45 H7          1.1354    1.2369   -2.0059 H         1 <0>         0.1470
     46 H8          2.3787    0.1428   -3.8266 H         1 <0>         0.1428
     47 H9          2.4674   -2.3121   -3.9602 H         1 <0>         0.1144
     48 H10        -0.9695   -2.9749   -0.4710 H         1 <0>         0.3935
     49 H11         7.1936   -4.3793   -1.0698 H         1 <0>         0.1492
     50 H12         8.9488   -3.7636    0.5419 H         1 <0>         0.1345
     51 H13         8.3435   -2.6999    2.6772 H         1 <0>         0.1311
     52 H14         5.9827   -2.2487    3.2067 H         1 <0>         0.1336
     53 H15         4.2213   -2.8517    1.5968 H         1 <0>         0.1473
     54 H16         0.8333   -5.2363   -3.9579 H         1 <0>         0.4423
     55 H17         3.5912   -3.6548   -5.2342 H         1 <0>         0.1198
     56 H18         4.5721   -5.1396   -5.1986 H         1 <0>         0.1659
     57 H19         1.5806   -2.6161   -6.1754 H         1 <0>         0.1523
     58 H20        -0.1801   -1.9655   -7.7129 H         1 <0>         0.1610
     59 H21        -1.0369   -3.5106   -9.4036 H         1 <0>         0.1643
     60 H22        -0.1935   -5.7497   -9.6452 H         1 <0>         0.1652
     61 H23         3.8593   -6.8464   -7.2972 H         1 <0>         0.1872
     62 H24         2.6347   -7.4412   -6.1383 H         1 <0>         0.1941
     63 H25         1.6885   -7.5068   -8.5416 H         1 <0>         0.4602
     64 H26         1.4347   -3.7437   -4.3291 H         1 <0>         0.4088
@<TRIPOS>BOND
     1    1    2 1
     2    1   42 1
     3    1   43 1
     4    1   44 1
     5    2    3 1
     6    3    8 ar
     7    3    4 ar
     8    4    5 ar
     9    4   45 1
    10    5    6 ar
    11    5   46 1
    12    6    7 ar
    13    6   47 1
    14    7    8 ar
    15    7   10 1
    16    8    9 1
    17    9   48 1
    18   10   11 1
    19   10   28 1
    20   10   12 1
    21   12   13 1
    22   12   19 1
    23   12   14 1
    24   14   15 1
    25   14   16 1
    26   14   27 1
    27   16   17 2
    28   16   18 am
    29   18   19 am
    30   18   21 1
    31   19   20 2
    32   21   26 ar
    33   21   22 ar
    34   22   23 ar
    35   22   49 1
    36   23   24 ar
    37   23   50 1
    38   24   25 ar
    39   24   51 1
    40   25   26 ar
    41   25   52 1
    42   26   53 1
    43   27   28 1
    44   27   29 1
    45   27   39 1
    46   28   54 1
    47   28   64 1
    48   29   30 1
    49   29   55 1
    50   29   56 1
    51   30   38 1
    52   30   31 2
    53   31   36 ar
    54   31   32 ar
    55   32   33 ar
    56   32   57 1
    57   33   34 ar
    58   33   58 1
    59   34   35 ar
    60   34   59 1
    61   35   36 ar
    62   35   60 1
    63   36   37 2
    64   37   38 1
    65   37   63 1
    66   38   61 1
    67   38   62 1
    68   39   40 2
    69   39   41 1
@<TRIPOS>MOLECULE
ZINC01733221
   58    58     0     0     0
SMALL
USER_CHARGES
2-hydroxy-N-[5-(2-hydroxy-2-methyl-propanoyl)amino-1,3,3,4,4-pentamethyl-pyrrolidin-2-yl]-2-methyl-propanamide
@<TRIPOS>ATOM
      1 C1         -0.0127    1.0858    0.0080 C.3       1 <0>        -0.1613
      2 C2         -0.7288    1.5792    1.2668 C.3       1 <0>        -0.0791
      3 C3          0.0229    1.1089    2.5305 C.3       1 <0>         0.2548
      4 H1         -0.6807    0.9055    3.3378 H         1 <0>         0.1660
      5 C4          0.0707    3.4512    2.6295 C.3       1 <0>         0.2655
      6 H2          0.7014    4.3286    2.4867 H         1 <0>         0.1774
      7 C5         -0.6974    3.1201    1.3319 C.3       1 <0>        -0.0767
      8 C6          0.0404    3.6884    0.1180 C.3       1 <0>        -0.1530
      9 C7         -2.1204    3.6783    1.3995 C.3       1 <0>        -0.1441
     10 N1         -0.8650    3.6705    3.7353 N.am      1 <0>        -0.7287
     11 C8         -0.6547    4.6771    4.6064 C.2       1 <0>         0.5357
     12 O1          0.3091    5.4015    4.4749 O.2       1 <0>        -0.4824
     13 C9         -1.6172    4.9027    5.7439 C.3       1 <0>         0.1194
     14 C10        -3.0125    5.1846    5.1830 C.3       1 <0>        -0.1838
     15 C11        -1.6651    3.6539    6.6266 C.3       1 <0>        -0.1858
     16 O2         -1.1819    6.0195    6.5218 O.3       1 <0>        -0.5342
     17 C12         1.3085    2.1817    4.2984 C.3       1 <0>        -0.0366
     18 N2          0.8224   -0.0827    2.2356 N.am      1 <0>        -0.7285
     19 C13         0.8110   -1.1291    3.0851 C.2       1 <0>         0.5351
     20 O3          0.1389   -1.0841    4.0936 O.2       1 <0>        -0.4846
     21 C14         1.6335   -2.3549    2.7817 C.3       1 <0>         0.1194
     22 C15         1.1812   -2.9555    1.4492 C.3       1 <0>        -0.1838
     23 C16         3.1110   -1.9681    2.6914 C.3       1 <0>        -0.1841
     24 O4          1.4558   -3.3174    3.8229 O.3       1 <0>        -0.5347
     25 C17        -2.1727    1.0736    1.2884 C.3       1 <0>        -0.1459
     26 H3          0.0021   -0.0041    0.0020 H         1 <0>         0.0763
     27 H4          1.0099    1.4631    0.0003 H         1 <0>         0.0658
     28 H5         -0.5399    1.4469   -0.8751 H         1 <0>         0.0926
     29 H6         -0.4709    3.3813   -0.7944 H         1 <0>         0.0900
     30 H7          0.0544    4.7766    0.1779 H         1 <0>         0.0787
     31 H8          1.0633    3.3120    0.1055 H         1 <0>         0.0652
     32 H9         -2.6191    3.2948    2.2896 H         1 <0>         0.0657
     33 H10        -2.0819    4.7667    1.4450 H         1 <0>         0.0754
     34 H11        -2.6737    3.3711    0.5121 H         1 <0>         0.0864
     35 H12        -1.6358    3.0911    3.8405 H         1 <0>         0.4163
     36 H13        -3.3445    4.3327    4.5896 H         1 <0>         0.0706
     37 H14        -3.7086    5.3477    6.0057 H         1 <0>         0.0847
     38 H15        -2.9783    6.0742    4.5541 H         1 <0>         0.0770
     39 H16        -0.6710    3.4531    7.0262 H         1 <0>         0.0738
     40 H17        -2.3612    3.8171    7.4493 H         1 <0>         0.0873
     41 H18        -1.9971    2.8020    6.0332 H         1 <0>         0.0691
     42 H19        -1.7556    6.2231    7.2731 H         1 <0>         0.3964
     43 H20         1.8491    1.2523    4.4775 H         1 <0>         0.1219
     44 H21         1.9538    3.0283    4.5330 H         1 <0>         0.1299
     45 H22         0.4219    2.2142    4.9317 H         1 <0>         0.1167
     46 H23         1.3600   -0.1187    1.4290 H         1 <0>         0.4186
     47 H24         1.3167   -2.2214    0.6550 H         1 <0>         0.0711
     48 H25         1.7760   -3.8422    1.2298 H         1 <0>         0.0846
     49 H26         0.1285   -3.2310    1.5135 H         1 <0>         0.0762
     50 H27         3.4332   -1.5402    3.6407 H         1 <0>         0.0732
     51 H28         3.7059   -2.8547    2.4720 H         1 <0>         0.0862
     52 H29         3.2466   -1.2340    1.8972 H         1 <0>         0.0697
     53 H30         1.9570   -4.1341    3.6932 H         1 <0>         0.3963
     54 H31        -2.1764   -0.0162    1.2684 H         1 <0>         0.0730
     55 H32        -2.6662    1.4221    2.1956 H         1 <0>         0.0683
     56 H33        -2.7042    1.4548    0.4164 H         1 <0>         0.0881
     57 N3          0.8748    2.2471    2.8671 N.4       1 <0>        -0.4233
     58 H34         1.7053    2.2541    2.2633 H         1 <0>         0.4322
@<TRIPOS>BOND
     1    1    2 1
     2    1   26 1
     3    1   27 1
     4    1   28 1
     5    2    7 1
     6    2    3 1
     7    2   25 1
     8    3    4 1
     9    3   18 1
    10    3   57 1
    11    5    6 1
    12    5    7 1
    13    5   10 1
    14    5   57 1
    15    7    8 1
    16    7    9 1
    17    8   29 1
    18    8   30 1
    19    8   31 1
    20    9   32 1
    21    9   33 1
    22    9   34 1
    23   10   11 am
    24   10   35 1
    25   11   12 2
    26   11   13 1
    27   13   14 1
    28   13   15 1
    29   13   16 1
    30   14   36 1
    31   14   37 1
    32   14   38 1
    33   15   39 1
    34   15   40 1
    35   15   41 1
    36   16   42 1
    37   17   43 1
    38   17   44 1
    39   17   45 1
    40   17   57 1
    41   18   19 am
    42   18   46 1
    43   19   20 2
    44   19   21 1
    45   21   22 1
    46   21   23 1
    47   21   24 1
    48   22   47 1
    49   22   48 1
    50   22   49 1
    51   23   50 1
    52   23   51 1
    53   23   52 1
    54   24   53 1
    55   25   54 1
    56   25   55 1
    57   25   56 1
    58   57   58 1
@<TRIPOS>MOLECULE
ZINC20384689
   40    41     0     0     0
SMALL
USER_CHARGES
N-[[2-(4-cyano-5-methyl-isothiazol-3-yl)sulfanylacetyl]amino]-2-phenoxy-acetamidine
@<TRIPOS>ATOM
      1 C1          3.8099   -0.2047   -0.0354 C.3       1 <0>        -0.0967
      2 C2          2.3506    0.1713   -0.0195 C.2       1 <0>        -0.0708
      3 C3          1.2378   -0.6567   -0.0133 C.2       1 <0>        -0.1098
      4 C4          0.0021   -0.0041    0.0020 C.2       1 <0>         0.1126
      5 N1         -0.0157    1.3063    0.0092 N.2       1 <0>        -0.4637
      6 S1          1.6336    1.7479   -0.0042 S.3       1 <0>         0.3186
      7 S2         -1.5007   -0.9239    0.0108 S.3       1 <0>         0.0787
      8 C5         -2.7938    0.3482    0.0303 C.3       1 <0>        -0.1539
      9 C6         -4.1483   -0.3124    0.0392 C.2       1 <0>         0.5458
     10 O1         -4.2329   -1.5223    0.0331 O.2       1 <0>        -0.4942
     11 N2         -5.2655    0.4412    0.0540 N.am      1 <0>        -0.5479
     12 N3         -6.5247   -0.1729    0.0623 N.pl3     1 <0>        -0.5280
     13 C7         -7.6604    0.5932    0.0774 C.2       1 <0>         0.1316
     14 N4         -7.5701    1.8833    0.0840 N.4       1 <0>        -0.5812
     15 C8         -9.0149   -0.0674    0.0863 C.2       1 <0>        -0.0033
     16 O2        -10.0335    0.9347    0.1017 O.3       1 <0>        -0.2781
     17 C9        -11.3224    0.5042    0.1113 C.ar      1 <0>         0.1007
     18 C10       -11.6012   -0.8548    0.1004 C.ar      1 <0>        -0.1867
     19 C11       -12.9122   -1.2900    0.1156 C.ar      1 <0>        -0.0790
     20 C12       -13.9463   -0.3723    0.1310 C.ar      1 <0>        -0.1314
     21 C13       -13.6712    0.9827    0.1361 C.ar      1 <0>        -0.0792
     22 C14       -12.3618    1.4229    0.1263 C.ar      1 <0>        -0.1362
     23 C15         1.3477   -2.0844   -0.0225 C.1       1 <0>         0.2610
     24 N5          1.4349   -3.2171   -0.0297 N.1       1 <0>        -0.3792
     25 H1          3.9061   -1.3005   -0.0422 H         1 <0>         0.0899
     26 H2          4.3029    0.2011    0.8603 H         1 <0>         0.1043
     27 H3          4.2858    0.2108   -0.9359 H         1 <0>         0.1043
     28 H4         -2.6831    0.9698    0.9311 H         1 <0>         0.1354
     29 H5         -2.7000    0.9802   -0.8651 H         1 <0>         0.1354
     30 H6         -5.1887    1.5385    0.0596 H         1 <0>         0.4378
     31 H7         -6.6015   -1.2702    0.0567 H         1 <0>         0.4913
     32 H8         -8.5790    2.3214    0.0960 H         1 <0>         0.4859
     33 H9         -9.0917   -1.1647    0.0806 H         1 <0>         0.2129
     34 H10       -10.7938   -1.5720    0.0841 H         1 <0>         0.1314
     35 H11       -13.1297   -2.3478    0.1108 H         1 <0>         0.1350
     36 H12       -14.9706   -0.7144    0.1387 H         1 <0>         0.1344
     37 H13       -14.4807    1.6976    0.1482 H         1 <0>         0.1394
     38 H14       -12.1474    2.4814    0.1300 H         1 <0>         0.1345
     39 H15        -7.0357    2.2181   -0.8173 H         1 <0>         0.4490
     40 H16        -7.0188    2.2077    0.9789 H         1 <0>         0.4490
@<TRIPOS>BOND
     1    1    2 1
     2    1   25 1
     3    1   26 1
     4    1   27 1
     5    2    6 1
     6    2    3 2
     7    3    4 1
     8    3   23 1
     9    4    5 2
    10    4    7 1
    11    5    6 1
    12    7    8 1
    13    8    9 1
    14    8   28 1
    15    8   29 1
    16    9   10 2
    17    9   11 am
    18   11   12 1
    19   11   30 1
    20   12   13 1
    21   12   31 1
    22   13   14 1
    23   13   15 2
    24   14   32 1
    25   14   39 1
    26   14   40 1
    27   15   16 1
    28   15   33 1
    29   16   17 1
    30   17   22 ar
    31   17   18 ar
    32   18   19 ar
    33   18   34 1
    34   19   20 ar
    35   19   35 1
    36   20   21 ar
    37   20   36 1
    38   21   22 ar
    39   21   37 1
    40   22   38 1
    41   23   24 3
@<TRIPOS>MOLECULE
ZINC15028715
   52    53     0     0     0
SMALL
USER_CHARGES

@<TRIPOS>ATOM
      1 C1         -0.4511    1.5178    0.1259 C.3       1 <0>        -0.1822
      2 C2          0.0541    0.0753    0.1959 C.3       1 <0>         0.0157
      3 H1          0.9574   -0.0230   -0.4062 H         1 <0>         0.1653
      4 C3          0.3635   -0.2797    1.6275 C.2       1 <0>         0.4928
      5 O1         -0.4822   -0.8085    2.3175 O.2       1 <0>        -0.4861
      6 N1          1.5800   -0.0097    2.1409 N.am      1 <0>        -0.5899
      7 C4          1.8647   -0.3363    3.4581 C.2       1 <0>        -0.0098
      8 C5          3.0444   -0.1310    4.1491 C.2       1 <0>        -0.1836
      9 C6          3.0895   -0.5695    5.5430 C.2       1 <0>        -0.0951
     10 C7          1.9471   -1.1304    5.9787 C.2       1 <0>        -0.2221
     11 S1          0.8546   -1.0646    4.5816 S.3       1 <0>         0.3246
     12 C8          2.0489   -1.5667    7.4152 C.3       1 <0>        -0.0374
     13 C9          3.5654   -1.5920    7.7090 C.3       1 <0>        -0.1160
     14 C10         4.1012   -0.5690    6.6869 C.3       1 <0>        -0.0630
     15 C11         4.2031    0.5003    3.5099 C.2       1 <0>         0.5759
     16 O2          4.3388    1.7090    3.5536 O.2       1 <0>        -0.5247
     17 N2          5.1181   -0.2579    2.8739 N.am      1 <0>        -0.8464
     18 N3         -0.9799   -0.8313   -0.3209 N.4       1 <0>        -0.3595
     19 C12        -1.3126   -0.4579   -1.7021 C.3       1 <0>        -0.0605
     20 C13        -0.4786   -2.2118   -0.2941 C.3       1 <0>        -0.0418
     21 C14        -1.5938   -3.1583   -0.6566 C.2       1 <0>         0.5084
     22 O3         -2.6975   -2.7255   -0.9122 O.2       1 <0>        -0.5240
     23 N4         -1.3646   -4.4859   -0.6969 N.am      1 <0>        -0.6979
     24 C15        -2.4487   -5.4060   -1.0493 C.3       1 <0>         0.1349
     25 C16        -1.8573   -6.6948   -1.6238 C.3       1 <0>        -0.1667
     26 C17        -3.2666   -5.7335    0.2015 C.3       1 <0>        -0.1691
     27 H2          0.3161    2.1904    0.5094 H         1 <0>         0.1154
     28 H3         -0.6749    1.7745   -0.9095 H         1 <0>         0.1076
     29 H4         -1.3544    1.6160    0.7280 H         1 <0>         0.0965
     30 H5          2.2564    0.4132    1.5890 H         1 <0>         0.4261
     31 H6          1.5476   -0.8506    8.0663 H         1 <0>         0.0915
     32 H7          1.6208   -2.5611    7.5415 H         1 <0>         0.0848
     33 H8          3.7704   -1.2680    8.7293 H         1 <0>         0.0902
     34 H9          3.9819   -2.5822    7.5246 H         1 <0>         0.0802
     35 H10         5.0818   -0.8767    6.3236 H         1 <0>         0.0765
     36 H11         4.1592    0.4211    7.1391 H         1 <0>         0.0873
     37 H12         5.0100   -1.2213    2.8391 H         1 <0>         0.4037
     38 H13         5.8847    0.1597    2.4510 H         1 <0>         0.4077
     39 H14        -0.4202   -0.5325   -2.3237 H         1 <0>         0.1248
     40 H15        -2.0798   -1.1305   -2.0856 H         1 <0>         0.1463
     41 H16        -1.6845    0.5665   -1.7220 H         1 <0>         0.1339
     42 H17         0.3350   -2.3170   -1.0118 H         1 <0>         0.1619
     43 H18        -0.1135   -2.4465    0.7058 H         1 <0>         0.1565
     44 H19        -0.4818   -4.8321   -0.4925 H         1 <0>         0.4093
     45 H20        -3.0940   -4.9391   -1.7935 H         1 <0>         0.0977
     46 H21        -1.2120   -7.1617   -0.8797 H         1 <0>         0.0667
     47 H22        -2.6639   -7.3794   -1.8861 H         1 <0>         0.0845
     48 H23        -1.2746   -6.4615   -2.5150 H         1 <0>         0.0656
     49 H24        -4.0733   -6.4181   -0.0607 H         1 <0>         0.0778
     50 H25        -2.6213   -6.2003    0.9457 H         1 <0>         0.0626
     51 H26        -3.6880   -4.8153    0.6108 H         1 <0>         0.0616
     52 H27        -1.8059   -0.7622    0.2544 H         1 <0>         0.4414
@<TRIPOS>BOND
     1    1    2 1
     2    1   27 1
     3    1   28 1
     4    1   29 1
     5    2    3 1
     6    2    4 1
     7    2   18 1
     8    4    5 2
     9    4    6 am
    10    6    7 1
    11    6   30 1
    12    7   11 1
    13    7    8 2
    14    8    9 1
    15    8   15 1
    16    9   14 1
    17    9   10 2
    18   10   11 1
    19   10   12 1
    20   12   13 1
    21   12   31 1
    22   12   32 1
    23   13   14 1
    24   13   33 1
    25   13   34 1
    26   14   35 1
    27   14   36 1
    28   15   16 2
    29   15   17 am
    30   17   37 1
    31   17   38 1
    32   18   19 1
    33   18   20 1
    34   18   52 1
    35   19   39 1
    36   19   40 1
    37   19   41 1
    38   20   21 1
    39   20   42 1
    40   20   43 1
    41   21   22 2
    42   21   23 am
    43   23   24 1
    44   23   44 1
    45   24   25 1
    46   24   26 1
    47   24   45 1
    48   25   46 1
    49   25   47 1
    50   25   48 1
    51   26   49 1
    52   26   50 1
    53   26   51 1
@<TRIPOS>MOLECULE
ZINC49227094
   44    44     0     0     0
SMALL
USER_CHARGES

@<TRIPOS>ATOM
      1 C1         -0.6570    0.5888    0.7202 C.3       1 <0>        -0.1584
      2 C2         -0.4545   -0.8293    0.1827 C.3       1 <0>        -0.1120
      3 C3         -1.8115   -1.4360   -0.1797 C.3       1 <0>        -0.1562
      4 C4          0.4315   -0.7805   -1.0637 C.3       1 <0>         0.1280
      5 H1          1.3983   -0.3482   -0.8056 H         1 <0>         0.1240
      6 C5         -0.2420    0.0797   -2.1349 C.3       1 <0>        -0.0219
      7 N1          0.5726    0.0662   -3.3573 N.4       1 <0>        -0.3884
      8 C6         -0.1432    0.7691   -4.4304 C.3       1 <0>        -0.0493
      9 C7          1.8527    0.7393   -3.1000 C.3       1 <0>        -0.0630
     10 N2          0.6255   -2.1383   -1.5785 N.pl3     1 <0>        -1.1383
     11 S1          1.9776   -2.9975   -1.1591 S.o2      1 <0>         2.6941
     12 O1          1.8614   -4.2683   -1.7843 O.2       1 <0>        -0.9350
     13 O2          3.0885   -2.1392   -1.3787 O.2       1 <0>        -0.9427
     14 C8          1.8963   -3.2816    0.5780 C.ar      1 <0>        -0.8008
     15 C9          2.8420   -2.7298    1.4235 C.ar      1 <0>         0.0948
     16 C10         2.7393   -2.9800    2.7860 C.ar      1 <0>        -0.2249
     17 C11         1.7040   -3.7664    3.2530 C.ar      1 <0>         0.2493
     18 N3          0.8167   -4.2799    2.4222 N.ar      1 <0>        -0.5131
     19 C12         0.8773   -4.0591    1.1180 C.ar      1 <0>         0.5065
     20 N4         -0.0832   -4.6146    0.2800 N.pl3     1 <0>        -0.5541
     21 N5         -1.1399   -5.2983    0.8110 N.3       1 <0>        -0.5922
     22 Br1         4.0038   -2.2522    3.9890 Br        1 <0>        -0.0117
     23 H2          0.3098    1.0210    0.9784 H         1 <0>         0.0677
     24 H3         -1.1368    1.2016   -0.0429 H         1 <0>         0.0604
     25 H4         -1.2882    0.5541    1.6082 H         1 <0>         0.0754
     26 H5          0.0254   -1.4420    0.9458 H         1 <0>         0.0930
     27 H6         -2.2913   -0.8232   -0.9428 H         1 <0>         0.0613
     28 H7         -1.6672   -2.4462   -0.5626 H         1 <0>         0.0547
     29 H8         -2.4427   -1.4707    0.7083 H         1 <0>         0.0731
     30 H9         -1.2318   -0.3212   -2.3534 H         1 <0>         0.1432
     31 H10        -0.3365    1.1033   -1.7725 H         1 <0>         0.1521
     32 H11        -0.4059    1.7725   -4.0954 H         1 <0>         0.1255
     33 H12         0.4962    0.8357   -5.3107 H         1 <0>         0.1282
     34 H13        -1.0510    0.2206   -4.6815 H         1 <0>         0.1238
     35 H14         2.3838    0.2177   -2.3038 H         1 <0>         0.1308
     36 H15         2.4572    0.7293   -4.0071 H         1 <0>         0.1299
     37 H16         1.6671    1.7701   -2.7984 H         1 <0>         0.1277
     38 H17        -0.0381   -2.5340   -2.1649 H         1 <0>         0.4217
     39 H18         3.6422   -2.1185    1.0331 H         1 <0>         0.1645
     40 H19         1.6199   -3.9638    4.3115 H         1 <0>         0.1805
     41 H20        -0.0029   -4.5167   -0.6817 H         1 <0>         0.4076
     42 H21        -1.6472   -4.7256    1.4689 H         1 <0>         0.3546
     43 H22        -1.7503   -5.6416    0.0846 H         1 <0>         0.3665
     44 H23         0.7444   -0.8880   -3.6365 H         1 <0>         0.4231
@<TRIPOS>BOND
     1    1    2 1
     2    1   23 1
     3    1   24 1
     4    1   25 1
     5    2    3 1
     6    2    4 1
     7    2   26 1
     8    3   27 1
     9    3   28 1
    10    3   29 1
    11    4    5 1
    12    4    6 1
    13    4   10 1
    14    6    7 1
    15    6   30 1
    16    6   31 1
    17    7    8 1
    18    7    9 1
    19    7   44 1
    20    8   32 1
    21    8   33 1
    22    8   34 1
    23    9   35 1
    24    9   36 1
    25    9   37 1
    26   10   11 1
    27   10   38 1
    28   11   12 2
    29   11   13 2
    30   11   14 1
    31   14   19 ar
    32   14   15 ar
    33   15   16 ar
    34   15   39 1
    35   16   17 ar
    36   16   22 1
    37   17   18 ar
    38   17   40 1
    39   18   19 ar
    40   19   20 1
    41   20   21 1
    42   20   41 1
    43   21   42 1
    44   21   43 1
@<TRIPOS>MOLECULE
ZINC20393240
   51    53     0     0     0
SMALL
USER_CHARGES

@<TRIPOS>ATOM
      1 C1         -0.3128    1.6483   -0.5054 C.ar      1 <0>        -0.0808
      2 C2          0.8578    2.3816   -0.4632 C.ar      1 <0>        -0.1513
      3 C3          2.0612    1.7492   -0.2006 C.ar      1 <0>         0.1022
      4 C4          2.0902    0.3825    0.0193 C.ar      1 <0>        -0.1522
      5 C5          0.9184   -0.3488   -0.0235 C.ar      1 <0>        -0.0819
      6 C6         -0.2826    0.2838   -0.2857 C.ar      1 <0>        -0.1000
      7 C7         -1.5598   -0.5148   -0.3320 C.3       1 <0>        -0.0899
      8 C8         -1.8012   -1.0083   -1.7600 C.3       1 <0>         0.1138
      9 N1         -3.0428   -1.7846   -1.8051 N.am      1 <0>        -0.5569
     10 C9         -2.9969   -3.1143   -1.5830 C.2       1 <0>         0.5832
     11 O1         -1.9419   -3.6724   -1.3471 O.2       1 <0>        -0.4947
     12 C10        -4.2595   -3.8728   -1.6333 C.2       1 <0>        -0.4050
     13 C11        -4.2904   -5.2378   -1.4156 C.2       1 <0>         0.3337
     14 N2         -5.4726   -5.8762   -1.3058 N.pl3     1 <0>        -0.6953
     15 C12        -5.5089   -7.3367   -1.1966 C.3       1 <0>         0.1106
     16 H1         -4.7088   -7.7662   -1.7994 H         1 <0>         0.1217
     17 C13        -5.3199   -7.7435    0.2662 C.3       1 <0>        -0.1356
     18 C14        -6.4430   -7.1407    1.1124 C.3       1 <0>        -0.1335
     19 C15        -7.7931   -7.6562    0.6100 C.3       1 <0>        -0.1187
     20 C16        -7.9821   -7.2494   -0.8527 C.3       1 <0>        -0.1494
     21 C17        -6.8590   -7.8522   -1.6990 C.3       1 <0>         0.0214
     22 H2         -6.8861   -8.9389   -1.6177 H         1 <0>         0.1651
     23 N3         -7.0405   -7.4616   -3.1034 N.4       1 <0>        -0.6397
     24 C18        -5.4879   -3.1126   -1.9254 C.2       1 <0>         0.5926
     25 O2         -6.5682   -3.6691   -1.9831 O.2       1 <0>        -0.5451
     26 N4         -5.3820   -1.7829   -2.1266 N.am      1 <0>        -0.6596
     27 C19        -4.1989   -1.1563   -2.0606 C.2       1 <0>         0.7085
     28 O3         -4.1725    0.0444   -2.2468 O.2       1 <0>        -0.5139
     29 F1          3.2062    2.4650   -0.1595 F         1 <0>        -0.1368
     30 H3         -1.2522    2.1421   -0.7058 H         1 <0>         0.1352
     31 H4          0.8340    3.4476   -0.6352 H         1 <0>         0.1384
     32 H5          3.0284   -0.1119    0.2239 H         1 <0>         0.1378
     33 H6          0.9408   -1.4149    0.1477 H         1 <0>         0.1341
     34 H7         -1.4782   -1.3699    0.3390 H         1 <0>         0.0806
     35 H8         -2.3931    0.1143   -0.0193 H         1 <0>         0.0816
     36 H9         -1.8827   -0.1532   -2.4310 H         1 <0>         0.1068
     37 H10        -0.9678   -1.6373   -2.0728 H         1 <0>         0.1068
     38 H11        -3.3674   -5.7925   -1.3335 H         1 <0>         0.1831
     39 H12        -6.2991   -5.3686   -1.2991 H         1 <0>         0.4227
     40 H13        -5.3470   -8.8302    0.3475 H         1 <0>         0.0957
     41 H14        -4.3581   -7.3763    0.6241 H         1 <0>         0.0942
     42 H15        -6.3084   -7.4306    2.1545 H         1 <0>         0.0872
     43 H16        -6.4160   -6.0541    1.0311 H         1 <0>         0.0707
     44 H17        -7.8202   -8.7429    0.6913 H         1 <0>         0.0809
     45 H18        -8.5932   -7.2268    1.2129 H         1 <0>         0.0904
     46 H19        -8.9439   -7.6167   -1.2106 H         1 <0>         0.0996
     47 H20        -7.9550   -6.1627   -0.9340 H         1 <0>         0.0897
     48 H21        -6.2998   -7.8591   -3.6615 H         1 <0>         0.4381
     49 H22        -7.9308   -7.8016   -3.4347 H         1 <0>         0.4421
     50 H23        -6.1809   -1.2679   -2.3203 H         1 <0>         0.4373
     51 H24        -7.0154   -6.4557   -3.1786 H         1 <0>         0.4347
@<TRIPOS>BOND
     1    1    6 ar
     2    1    2 ar
     3    1   30 1
     4    2    3 ar
     5    2   31 1
     6    3    4 ar
     7    3   29 1
     8    4    5 ar
     9    4   32 1
    10    5    6 ar
    11    5   33 1
    12    6    7 1
    13    7    8 1
    14    7   34 1
    15    7   35 1
    16    8    9 1
    17    8   36 1
    18    8   37 1
    19    9   27 am
    20    9   10 am
    21   10   11 2
    22   10   12 1
    23   12   13 2
    24   12   24 1
    25   13   14 1
    26   13   38 1
    27   14   15 1
    28   14   39 1
    29   15   16 1
    30   15   21 1
    31   15   17 1
    32   17   18 1
    33   17   40 1
    34   17   41 1
    35   18   19 1
    36   18   42 1
    37   18   43 1
    38   19   20 1
    39   19   44 1
    40   19   45 1
    41   20   21 1
    42   20   46 1
    43   20   47 1
    44   21   22 1
    45   21   23 1
    46   23   48 1
    47   23   49 1
    48   23   51 1
    49   24   25 2
    50   24   26 am
    51   26   27 am
    52   26   50 1
    53   27   28 2
@<TRIPOS>MOLECULE
ZINC67562696
   59    61     0     0     0
SMALL
USER_CHARGES

@<TRIPOS>ATOM
      1 C1         -0.0216    1.4564    0.0069 C.3       1 <0>         0.0125
      2 N1          0.0013   -0.0124   -0.0054 N.3       1 <0>        -0.4997
      3 C2         -1.3668   -0.5620   -0.0200 C.3       1 <0>         0.0270
      4 C3         -1.4985   -1.4930    1.2037 C.3       1 <0>         0.0013
      5 H1         -1.9539   -0.9656    2.0419 H         1 <0>         0.1551
      6 C4         -0.0256   -1.8616    1.5226 C.3       1 <0>        -0.1375
      7 C5          0.7085   -0.5412    1.1803 C.3       1 <0>         0.0551
      8 H2          0.6341    0.1607    2.0109 H         1 <0>         0.0942
      9 C6          2.1534   -0.8145    0.8508 C.2       1 <0>         0.5164
     10 O1          2.5016   -0.9229   -0.3059 O.2       1 <0>        -0.4986
     11 N2          3.0588   -0.9384    1.8415 N.am      1 <0>        -0.7253
     12 C7          4.4634   -1.2041    1.5211 C.3       1 <0>         0.1468
     13 C8          4.6693   -2.7099    1.3412 C.3       1 <0>        -0.1409
     14 C9          6.1313   -2.9808    0.9724 C.3       1 <0>         0.1308
     15 N3          6.9968   -2.3709    1.9910 N.am      1 <0>        -0.6330
     16 C10         6.8204   -0.9470    2.3072 C.3       1 <0>         0.1153
     17 C11         5.3507   -0.6988    2.6611 C.3       1 <0>        -0.1424
     18 C12         7.9344   -3.1038    2.6237 C.2       1 <0>         0.7091
     19 O2          8.0077   -4.3008    2.4235 O.2       1 <0>        -0.5836
     20 N4          8.7909   -2.5098    3.4781 N.am      1 <0>        -0.7421
     21 C13         9.8782   -3.2840    4.0819 C.3       1 <0>         0.1610
     22 C14        11.0757   -3.3096    3.1299 C.3       1 <0>        -0.1290
     23 C15        12.2113   -4.1182    3.7605 C.3       1 <0>        -0.1181
     24 C16        12.6251   -3.4704    5.0833 C.3       1 <0>        -0.1234
     25 C17        11.4276   -3.4448    6.0353 C.3       1 <0>        -0.1164
     26 C18        10.2921   -2.6362    5.4047 C.3       1 <0>        -0.1254
     27 N5         -2.2757   -2.6920    0.8629 N.4       1 <0>        -0.6282
     28 H3          1.0003    1.8358    0.0024 H         1 <0>         0.0823
     29 H4         -0.5477    1.8190   -0.8762 H         1 <0>         0.0858
     30 H5         -0.5344    1.8043    0.9036 H         1 <0>         0.0395
     31 H6         -2.0926    0.2480    0.0505 H         1 <0>         0.0941
     32 H7         -1.5287   -1.1293   -0.9366 H         1 <0>         0.1023
     33 H8          0.0945   -2.1134    2.5762 H         1 <0>         0.1145
     34 H9          0.3194   -2.6765    0.8862 H         1 <0>         0.1075
     35 H10         2.7803   -0.8518    2.7666 H         1 <0>         0.3993
     36 H11         4.7292   -0.6886    0.5982 H         1 <0>         0.0948
     37 H12         4.4275   -3.2239    2.2715 H         1 <0>         0.0691
     38 H13         4.0199   -3.0733    0.5448 H         1 <0>         0.0789
     39 H14         6.3068   -4.0561    0.9401 H         1 <0>         0.1002
     40 H15         6.3495   -2.5435   -0.0019 H         1 <0>         0.0703
     41 H16         7.4506   -0.6803    3.1557 H         1 <0>         0.0845
     42 H17         7.0948   -0.3438    1.4418 H         1 <0>         0.0764
     43 H18         5.1863    0.3692    2.8041 H         1 <0>         0.0850
     44 H19         5.1025   -1.2318    3.5789 H         1 <0>         0.0752
     45 H20         8.6873   -1.5697    3.6934 H         1 <0>         0.3934
     46 H21         9.5392   -4.3033    4.2669 H         1 <0>         0.0898
     47 H22        10.7808   -3.7711    2.1875 H         1 <0>         0.0661
     48 H23        11.4146   -2.2903    2.9449 H         1 <0>         0.0625
     49 H24        11.8723   -5.1375    3.9454 H         1 <0>         0.0651
     50 H25        13.0644   -4.1364    3.0823 H         1 <0>         0.0664
     51 H26        13.4341   -4.0464    5.5325 H         1 <0>         0.0661
     52 H27        12.9641   -2.4511    4.8983 H         1 <0>         0.0631
     53 H28        11.0887   -4.4641    6.2203 H         1 <0>         0.0661
     54 H29        11.7225   -2.9833    6.9777 H         1 <0>         0.0687
     55 H30        10.6310   -1.6169    5.2198 H         1 <0>         0.0673
     56 H31         9.4389   -2.6180    6.0829 H         1 <0>         0.0671
     57 H32        -1.8247   -3.1807    0.1041 H         1 <0>         0.4380
     58 H33        -2.3299   -3.2978    1.6680 H         1 <0>         0.4396
     59 H34        -3.2063   -2.4211    0.5825 H         1 <0>         0.4403
@<TRIPOS>BOND
     1    1    2 1
     2    1   28 1
     3    1   29 1
     4    1   30 1
     5    2    7 1
     6    2    3 1
     7    3    4 1
     8    3   31 1
     9    3   32 1
    10    4    5 1
    11    4    6 1
    12    4   27 1
    13    6    7 1
    14    6   33 1
    15    6   34 1
    16    7    8 1
    17    7    9 1
    18    9   10 2
    19    9   11 am
    20   11   12 1
    21   11   35 1
    22   12   17 1
    23   12   13 1
    24   12   36 1
    25   13   14 1
    26   13   37 1
    27   13   38 1
    28   14   15 1
    29   14   39 1
    30   14   40 1
    31   15   16 1
    32   15   18 am
    33   16   17 1
    34   16   41 1
    35   16   42 1
    36   17   43 1
    37   17   44 1
    38   18   19 2
    39   18   20 am
    40   20   21 1
    41   20   45 1
    42   21   26 1
    43   21   22 1
    44   21   46 1
    45   22   23 1
    46   22   47 1
    47   22   48 1
    48   23   24 1
    49   23   49 1
    50   23   50 1
    51   24   25 1
    52   24   51 1
    53   24   52 1
    54   25   26 1
    55   25   53 1
    56   25   54 1
    57   26   55 1
    58   26   56 1
    59   27   57 1
    60   27   58 1
    61   27   59 1
@<TRIPOS>MOLECULE
ZINC12558550
   63    66     0     0     0
SMALL
USER_CHARGES
2-[[5-[(1S)-1-dimethylaminoethyl]-4-(4-fluorophenyl)-1,2,4-triazol-3-yl]sulfanyl]-N-[(1R)-1-(1-naphthyl)ethyl]acetamide
@<TRIPOS>ATOM
      1 C1          3.8976    2.8855   -1.4959 C.3       1 <0>        -0.1606
      2 C2          3.6714    3.2050   -0.0168 C.3       1 <0>         0.1843
      3 H1          3.7104    2.2835    0.5641 H         1 <0>         0.1055
      4 C3          2.3212    3.8514    0.1567 C.ar      1 <0>        -0.0837
      5 C4          2.2063    5.2078    0.1520 C.ar      1 <0>        -0.1112
      6 C5          0.9665    5.8234    0.3111 C.ar      1 <0>        -0.1158
      7 C6         -0.1661    5.0862    0.4748 C.ar      1 <0>        -0.0974
      8 C7         -0.0872    3.6834    0.4845 C.ar      1 <0>        -0.0488
      9 C8          1.1742    3.0572    0.3232 C.ar      1 <0>        -0.0395
     10 C9          1.2530    1.6540    0.3325 C.ar      1 <0>        -0.1149
     11 C10         0.1205    0.9172    0.4958 C.ar      1 <0>        -0.1069
     12 C11        -1.1205    1.5328    0.6491 C.ar      1 <0>        -0.1125
     13 C12        -1.2346    2.8889    0.6506 C.ar      1 <0>        -0.1040
     14 N1          4.7150    4.1211    0.4501 N.am      1 <0>        -0.7136
     15 C13         5.8866    3.6330    0.9036 C.2       1 <0>         0.5354
     16 O1          6.0769    2.4354    0.9253 O.2       1 <0>        -0.5198
     17 C14         6.9601    4.5754    1.3839 C.3       1 <0>        -0.1588
     18 S1          8.4009    3.6230    1.9253 S.3       1 <0>         0.1263
     19 C15         9.4671    4.9357    2.4198 C.2       1 <0>         0.1813
     20 N2          9.1991    6.2201    2.3711 N.2       1 <0>        -0.2786
     21 N3         10.2015    6.8934    2.8106 N.2       1 <0>        -0.2496
     22 C16        11.1630    6.0878    3.1639 C.2       1 <0>         0.1178
     23 N4         10.7288    4.8096    2.9328 N.pl3     1 <0>        -0.3937
     24 C17        11.4327    3.6191    3.1701 C.ar      1 <0>         0.0575
     25 C18        11.7668    3.2562    4.4675 C.ar      1 <0>        -0.0700
     26 C19        12.4541    2.0809    4.6997 C.ar      1 <0>        -0.1371
     27 C20        12.8207    1.2710    3.6381 C.ar      1 <0>         0.1392
     28 C21        12.4932    1.6343    2.3426 C.ar      1 <0>        -0.1342
     29 C22        11.8005    2.8057    2.1072 C.ar      1 <0>        -0.0617
     30 F1         13.4983    0.1247    3.8665 F         1 <0>        -0.1186
     31 C23        12.5021    6.4882    3.7275 C.3       1 <0>         0.1358
     32 H2         13.1854    5.6404    3.6778 H         1 <0>         0.1491
     33 C24        12.3329    6.9221    5.1849 C.3       1 <0>        -0.1774
     34 C25        12.2274    8.8117    3.1043 C.3       1 <0>        -0.0650
     35 C26        14.4476    7.8674    3.3088 C.3       1 <0>        -0.0454
     36 H3          4.8742    2.4180   -1.6214 H         1 <0>         0.0672
     37 H4          3.1212    2.2039   -1.8432 H         1 <0>         0.0747
     38 H5          3.8586    3.8070   -2.0767 H         1 <0>         0.0629
     39 H6          3.0896    5.8160    0.0239 H         1 <0>         0.1180
     40 H7          0.9030    6.9015    0.3039 H         1 <0>         0.1268
     41 H8         -1.1204    5.5770    0.5969 H         1 <0>         0.1306
     42 H9          2.2072    1.1631    0.2111 H         1 <0>         0.1284
     43 H10         0.1838   -0.1609    0.5021 H         1 <0>         0.1265
     44 H11        -2.0043    0.9246    0.7729 H         1 <0>         0.1269
     45 H12        -2.2023    3.3521    0.7743 H         1 <0>         0.1303
     46 H13         4.5628    5.0789    0.4327 H         1 <0>         0.4044
     47 H14         7.2493    5.2412    0.5708 H         1 <0>         0.1326
     48 H15         6.5796    5.1646    2.2182 H         1 <0>         0.1325
     49 H16        11.4855    3.8903    5.2953 H         1 <0>         0.1430
     50 H17        12.7101    1.7959    5.7095 H         1 <0>         0.1570
     51 H18        12.7799    1.0014    1.5157 H         1 <0>         0.1580
     52 H19        11.5456    3.0890    1.0966 H         1 <0>         0.1471
     53 H20        11.9271    6.0939    5.7658 H         1 <0>         0.1044
     54 H21        13.3014    7.2117    5.5926 H         1 <0>         0.0977
     55 H22        11.6496    7.7699    5.2346 H         1 <0>         0.0961
     56 H23        12.2054    9.0998    4.1554 H         1 <0>         0.1257
     57 H24        12.6547    9.6226    2.5143 H         1 <0>         0.1238
     58 H25        11.2128    8.6087    2.7619 H         1 <0>         0.1488
     59 H26        15.0469    6.9778    3.1149 H         1 <0>         0.1220
     60 H27        14.8277    8.6982    2.7144 H         1 <0>         0.1303
     61 H28        14.5059    8.1212    4.3672 H         1 <0>         0.1277
     62 N5         13.0483    7.5969    2.9169 N.4       1 <0>        -0.3896
     63 H29        13.0253    7.3285    1.9261 H         1 <0>         0.4325
@<TRIPOS>BOND
     1    1    2 1
     2    1   36 1
     3    1   37 1
     4    1   38 1
     5    2    3 1
     6    2    4 1
     7    2   14 1
     8    4    9 ar
     9    4    5 ar
    10    5    6 ar
    11    5   39 1
    12    6    7 ar
    13    6   40 1
    14    7    8 ar
    15    7   41 1
    16    8   13 ar
    17    8    9 ar
    18    9   10 ar
    19   10   11 ar
    20   10   42 1
    21   11   12 ar
    22   11   43 1
    23   12   13 ar
    24   12   44 1
    25   13   45 1
    26   14   15 am
    27   14   46 1
    28   15   16 2
    29   15   17 1
    30   17   18 1
    31   17   47 1
    32   17   48 1
    33   18   19 1
    34   19   23 1
    35   19   20 2
    36   20   21 1
    37   21   22 2
    38   22   23 1
    39   22   31 1
    40   23   24 1
    41   24   29 ar
    42   24   25 ar
    43   25   26 ar
    44   25   49 1
    45   26   27 ar
    46   26   50 1
    47   27   28 ar
    48   27   30 1
    49   28   29 ar
    50   28   51 1
    51   29   52 1
    52   31   32 1
    53   31   33 1
    54   31   62 1
    55   33   53 1
    56   33   54 1
    57   33   55 1
    58   34   56 1
    59   34   57 1
    60   34   58 1
    61   34   62 1
    62   35   59 1
    63   35   60 1
    64   35   61 1
    65   35   62 1
    66   62   63 1
@<TRIPOS>MOLECULE
ZINC19890432
   51    53     0     0     0
SMALL
USER_CHARGES

@<TRIPOS>ATOM
      1 C1         -0.8612    0.8173   -0.3726 C.3       1 <0>        -0.1859
      2 C2         -0.6227   -0.6937   -0.4003 C.3       1 <0>         0.1150
      3 C3          0.0541   -1.1271    0.9016 C.3       1 <0>        -0.1884
      4 C4         -1.9621   -1.4189   -0.5448 C.3       1 <0>        -0.1421
      5 O1          0.2190   -1.0229   -1.5072 O.3       1 <0>        -0.3347
      6 C5          1.4454   -0.4618   -1.5321 C.2       1 <0>         0.5113
      7 O2          1.7900    0.2867   -0.6374 O.2       1 <0>        -0.4604
      8 C6          2.3623   -0.7540   -2.6367 C.2       1 <0>        -0.1507
      9 C7          2.3742    0.0444   -3.7918 C.2       1 <0>        -0.0387
     10 C8          3.2526   -0.2966   -4.7689 C.2       1 <0>        -0.2576
     11 S1          4.0946   -1.7199   -4.1352 S.3       1 <0>         0.2386
     12 C9          3.2531   -1.8338   -2.5637 C.2       1 <0>         0.0742
     13 N1          3.4277   -2.7277   -1.5672 N.pl3     1 <0>        -0.4817
     14 C10         4.3209   -3.6758   -1.6880 C.2       1 <0>         0.3125
     15 C11         4.5736   -4.5931   -0.5699 C.ar      1 <0>        -0.2502
     16 C12         5.4429   -5.6786   -0.7319 C.ar      1 <0>         0.0129
     17 C13         5.6757   -6.5352    0.3222 C.ar      1 <0>        -0.1549
     18 C14         5.0529   -6.3275    1.5435 C.ar      1 <0>         0.0086
     19 C15         4.1920   -5.2602    1.7176 C.ar      1 <0>        -0.1288
     20 C16         3.9496   -4.3839    0.6703 C.ar      1 <0>         0.3363
     21 O3          3.1091   -3.3321    0.8419 O.3       1 <0>        -0.5931
     22 Cl1         3.4180   -5.0125    3.2516 Cl        1 <0>        -0.0341
     23 Br1         6.8495   -8.0013    0.1018 Br        1 <0>        -0.0242
     24 C17         3.4411    0.3958   -6.0809 C.3       1 <0>         0.0999
     25 N2          2.2808    1.2749   -6.3145 N.4       1 <0>        -0.3859
     26 C18         2.0504    2.1046   -5.1245 C.3       1 <0>        -0.0048
     27 C19         1.4650    1.2553   -3.9931 C.3       1 <0>        -0.0954
     28 C20         2.5467    2.1404   -7.4713 C.3       1 <0>        -0.0465
     29 H1          0.0930    1.3340   -0.2697 H         1 <0>         0.0805
     30 H2         -1.3434    1.1261   -1.3001 H         1 <0>         0.0607
     31 H3         -1.5032    1.0684    0.4717 H         1 <0>         0.0803
     32 H4         -0.5879   -0.8761    1.7459 H         1 <0>         0.0780
     33 H5          0.2241   -2.2036    0.8818 H         1 <0>         0.0695
     34 H6          1.0084   -0.6105    1.0045 H         1 <0>         0.0823
     35 H7         -2.4443   -1.1101   -1.4723 H         1 <0>         0.0667
     36 H8         -1.7922   -2.4954   -0.5645 H         1 <0>         0.0696
     37 H9         -2.6041   -1.1679    0.2996 H         1 <0>         0.0864
     38 H10         2.8908   -2.6669   -0.7615 H         1 <0>         0.4458
     39 H11         4.8724   -3.7838   -2.6102 H         1 <0>         0.1825
     40 H12         5.9299   -5.8445   -1.6815 H         1 <0>         0.1482
     41 H13         5.2415   -7.0041    2.3638 H         1 <0>         0.1505
     42 H14         4.3534    0.9917   -6.0536 H         1 <0>         0.1511
     43 H15         3.5085   -0.3430   -6.8794 H         1 <0>         0.1506
     44 H16         2.9956    2.5387   -4.7984 H         1 <0>         0.1374
     45 H17         1.3540    2.9057   -5.3721 H         1 <0>         0.1454
     46 H18         0.4628    0.9226   -4.2630 H         1 <0>         0.1163
     47 H19         1.4244    1.8421   -3.0754 H         1 <0>         0.1293
     48 H20         2.7192    1.5244   -8.3538 H         1 <0>         0.1294
     49 H21         1.6887    2.7902   -7.6438 H         1 <0>         0.1305
     50 H22         3.4295    2.7487   -7.2746 H         1 <0>         0.1265
     51 H23         1.4632    0.7121   -6.4957 H         1 <0>         0.4310
@<TRIPOS>BOND
     1    1    2 1
     2    1   29 1
     3    1   30 1
     4    1   31 1
     5    2    3 1
     6    2    4 1
     7    2    5 1
     8    3   32 1
     9    3   33 1
    10    3   34 1
    11    4   35 1
    12    4   36 1
    13    4   37 1
    14    5    6 1
    15    6    7 2
    16    6    8 1
    17    8   12 2
    18    8    9 1
    19    9   27 1
    20    9   10 2
    21   10   11 1
    22   10   24 1
    23   11   12 1
    24   12   13 1
    25   13   14 2
    26   13   38 1
    27   14   15 1
    28   14   39 1
    29   15   20 ar
    30   15   16 ar
    31   16   17 ar
    32   16   40 1
    33   17   18 ar
    34   17   23 1
    35   18   19 ar
    36   18   41 1
    37   19   20 ar
    38   19   22 1
    39   20   21 1
    40   24   25 1
    41   24   42 1
    42   24   43 1
    43   25   26 1
    44   25   28 1
    45   25   51 1
    46   26   27 1
    47   26   44 1
    48   26   45 1
    49   27   46 1
    50   27   47 1
    51   28   48 1
    52   28   49 1
    53   28   50 1
@<TRIPOS>MOLECULE
ZINC40342928
   51    55     0     0     0
SMALL
USER_CHARGES

@<TRIPOS>ATOM
      1 C1          0.8330    0.2892    1.6248 C.ar      1 <0>        -0.0874
      2 C2          2.1754    0.5377    1.8233 C.ar      1 <0>        -0.1054
      3 C3          3.1099   -0.4528    1.5728 C.ar      1 <0>        -0.0181
      4 C4          2.7035   -1.6973    1.1221 C.ar      1 <0>        -0.1040
      5 C5          1.3638   -1.9568    0.9196 C.ar      1 <0>        -0.0691
      6 C6          0.4178   -0.9628    1.1708 C.ar      1 <0>        -0.0414
      7 C7         -1.0210   -1.2356    0.9564 C.2       1 <0>         0.1203
      8 C8         -1.5759   -1.8726   -0.1067 C.2       1 <0>        -0.2065
      9 C9         -2.9682   -1.8928    0.1352 C.2       1 <0>        -0.0375
     10 N1         -3.1659   -1.2881    1.2897 N.2       1 <0>        -0.1883
     11 H1         -1.9484   -0.4370    2.6383 H         1 <0>         0.4589
     12 N2         -2.0478   -0.9007    1.7922 N.pl3     1 <0>        -0.3682
     13 C10        -3.6146   -2.5784   -0.9983 C.2       1 <0>         0.6142
     14 O1         -4.8110   -2.7658   -1.1045 O.2       1 <0>        -0.4981
     15 N3         -2.6950   -2.9668   -1.8982 N.am      1 <0>        -0.6037
     16 C11        -1.3651   -2.5647   -1.4256 C.3       1 <0>         0.2589
     17 H2         -0.7351   -3.4438   -1.2905 H         1 <0>         0.1177
     18 C12        -0.7291   -1.6181   -2.4108 C.ar      1 <0>        -0.0848
     19 C13        -1.4960   -0.6517   -3.0345 C.ar      1 <0>        -0.0776
     20 C14        -0.9135    0.2168   -3.9380 C.ar      1 <0>        -0.1118
     21 C15         0.4381    0.1197   -4.2186 C.ar      1 <0>        -0.0186
     22 C16         1.2060   -0.8467   -3.5946 C.ar      1 <0>        -0.0965
     23 C17         0.6232   -1.7127   -2.6866 C.ar      1 <0>        -0.0061
     24 Cl1         1.5875   -2.9220   -1.8983 Cl        1 <0>        -0.0370
     25 Cl2         1.1695    1.2103   -5.3541 Cl        1 <0>        -0.0452
     26 C18        -2.9749   -3.6768   -3.1487 C.3       1 <0>         0.1443
     27 C19        -3.3657   -2.6686   -4.2312 C.3       1 <0>        -0.1749
     28 C20        -3.8046   -3.4175   -5.4911 C.3       1 <0>         0.0946
     29 N4         -4.1788   -2.4521   -6.5276 N.pl3     1 <0>        -0.4055
     30 C21        -5.4238   -1.9211   -6.7315 C.2       1 <0>         0.0283
     31 C22        -5.3228   -1.0826   -7.7805 C.2       1 <0>         0.0036
     32 N5         -4.0508   -1.1012   -8.2055 N.pl3     1 <0>        -0.4756
     33 C23        -3.3586   -1.9155   -7.4565 C.cat     1 <0>         0.2860
     34 Cl3         4.7976   -0.1328    1.8242 Cl        1 <0>        -0.0538
     35 H3          0.1045    1.0610    1.8247 H         1 <0>         0.1338
     36 H4          2.4980    1.5068    2.1744 H         1 <0>         0.1422
     37 H5          3.4368   -2.4662    0.9283 H         1 <0>         0.1404
     38 H6          1.0480   -2.9276    0.5674 H         1 <0>         0.1347
     39 H7         -2.5509   -0.5755   -2.8158 H         1 <0>         0.1367
     40 H8         -1.5133    0.9711   -4.4255 H         1 <0>         0.1394
     41 H9          2.2609   -0.9228   -3.8133 H         1 <0>         0.1514
     42 H10        -2.0852   -4.2218   -3.4641 H         1 <0>         0.1003
     43 H11        -3.7945   -4.3783   -2.9926 H         1 <0>         0.1012
     44 H12        -4.1878   -2.0497   -3.8715 H         1 <0>         0.0914
     45 H13        -2.5095   -2.0357   -4.4644 H         1 <0>         0.0901
     46 H14        -2.9825   -4.0363   -5.8508 H         1 <0>         0.1256
     47 H15        -4.6608   -4.0504   -5.2579 H         1 <0>         0.1299
     48 H16        -6.3158   -2.1339   -6.1610 H         1 <0>         0.2235
     49 H17        -6.1253   -0.4978   -8.2051 H         1 <0>         0.2239
     50 H18        -2.3050   -2.1271   -7.5636 H         1 <0>         0.2582
     51 H19        -3.6999   -0.5876   -8.9498 H         1 <0>         0.4652
@<TRIPOS>BOND
     1    1    6 ar
     2    1    2 ar
     3    1   35 1
     4    2    3 ar
     5    2   36 1
     6    3    4 ar
     7    3   34 1
     8    4    5 ar
     9    4   37 1
    10    5    6 ar
    11    5   38 1
    12    6    7 1
    13    7    8 2
    14    7   12 1
    15    8   16 1
    16    8    9 1
    17    9   13 1
    18    9   10 2
    19   10   12 1
    20   11   12 1
    21   13   14 2
    22   13   15 am
    23   15   16 1
    24   15   26 1
    25   16   17 1
    26   16   18 1
    27   18   23 ar
    28   18   19 ar
    29   19   20 ar
    30   19   39 1
    31   20   21 ar
    32   20   40 1
    33   21   22 ar
    34   21   25 1
    35   22   23 ar
    36   22   41 1
    37   23   24 1
    38   26   27 1
    39   26   42 1
    40   26   43 1
    41   27   28 1
    42   27   44 1
    43   27   45 1
    44   28   29 1
    45   28   46 1
    46   28   47 1
    47   29   33 1
    48   29   30 1
    49   30   31 2
    50   30   48 1
    51   31   32 1
    52   31   49 1
    53   32   33 2
    54   32   51 1
    55   33   50 1
@<TRIPOS>MOLECULE
ZINC63571860
   68    72     0     0     0
SMALL
USER_CHARGES

@<TRIPOS>ATOM
      1 C1         -0.2683    0.9230   -0.9220 C.3       1 <0>        -0.1542
      2 C2         -0.1474   -0.5949   -0.7737 C.3       1 <0>         0.0604
      3 O1         -1.4506   -1.1809   -0.7938 O.3       1 <0>        -0.3507
      4 C3         -1.5204   -2.5159   -0.6735 C.2       1 <0>         0.4667
      5 O2         -0.5086   -3.1656   -0.5550 O.2       1 <0>        -0.5044
      6 C4         -2.8608   -3.2045   -0.6862 C.3       1 <0>        -0.0827
      7 C5         -3.7127   -2.6838    0.4731 C.3       1 <0>        -0.1108
      8 C6         -3.0033   -2.9732    1.7974 C.3       1 <0>        -0.1170
      9 C7         -2.8028   -4.4824    1.9495 C.3       1 <0>        -0.1006
     10 C8         -1.9509   -5.0031    0.7901 C.3       1 <0>        -0.1283
     11 C9         -2.6603   -4.7137   -0.5342 C.3       1 <0>        -0.1035
     12 C10        -2.0933   -4.7717    3.2738 C.3       1 <0>         0.1382
     13 N1         -2.0079   -6.2202    3.4757 N.am      1 <0>        -0.7328
     14 C11        -1.4186   -6.7126    4.5833 C.2       1 <0>         0.7107
     15 O3         -0.8782   -5.9597    5.3703 O.2       1 <0>        -0.5682
     16 N2         -1.4283   -8.0397    4.8185 N.am      1 <0>        -0.6241
     17 C12        -1.9730   -8.9516    3.8074 C.3       1 <0>         0.0938
     18 C13        -0.8943   -9.9739    3.4048 C.3       1 <0>        -0.1052
     19 C14        -0.2652  -10.4656    4.6848 C.2       1 <0>         0.0573
     20 C15        -0.0575  -11.6928    5.1461 C.ar      1 <0>        -0.1622
     21 C16        -0.2627  -13.0164    4.5360 C.ar      1 <0>        -0.0040
     22 C17         0.0420  -14.0887    5.3138 C.ar      1 <0>        -0.1560
     23 C18         0.5243  -13.9781    6.6217 C.ar      1 <0>         0.0520
     24 C19         0.7504  -12.8016    7.2589 C.ar      1 <0>        -0.2056
     25 C20         0.4753  -11.6024    6.5396 C.ar      1 <0>         0.3380
     26 N3          0.6200  -10.3588    6.8910 N.pl3     1 <0>        -0.5664
     27 C21         0.2591   -9.5128    5.7529 C.3       1 <0>         0.0808
     28 H1          1.1311   -8.9699    5.3880 H         1 <0>         0.1812
     29 C22        -0.8867   -8.5585    6.0845 C.3       1 <0>         0.2172
     30 H2         -0.5138   -7.7339    6.6920 H         1 <0>         0.1450
     31 C23        -1.9631   -9.3002    6.8343 C.ar      1 <0>        -0.1449
     32 C24        -2.3023   -8.9138    8.1176 C.ar      1 <0>        -0.0616
     33 C25        -3.2896   -9.5929    8.8061 C.ar      1 <0>        -0.1453
     34 C26        -3.9392  -10.6606    8.2100 C.ar      1 <0>         0.1248
     35 C27        -3.5986  -11.0466    6.9247 C.ar      1 <0>        -0.1480
     36 C28        -2.6146  -10.3627    6.2362 C.ar      1 <0>        -0.0971
     37 F1         -4.9042  -11.3254    8.8822 F         1 <0>        -0.1262
     38 H3          0.7257    1.3700   -0.9066 H         1 <0>         0.0812
     39 H4         -0.7577    1.1579   -1.8672 H         1 <0>         0.0681
     40 H5         -0.8592    1.3227   -0.0978 H         1 <0>         0.0674
     41 H6          0.4435   -0.9946   -1.5979 H         1 <0>         0.0678
     42 H7          0.3420   -0.8298    0.1716 H         1 <0>         0.0666
     43 H8         -3.3662   -2.9984   -1.6297 H         1 <0>         0.1121
     44 H9         -3.8555   -1.6087    0.3648 H         1 <0>         0.0828
     45 H10        -4.6822   -3.1819    0.4639 H         1 <0>         0.0828
     46 H11        -2.0337   -2.4751    1.8066 H         1 <0>         0.0635
     47 H12        -3.6102   -2.6023    2.6234 H         1 <0>         0.0762
     48 H13        -3.7723   -4.9804    1.9403 H         1 <0>         0.0804
     49 H14        -0.9814   -4.5050    0.7994 H         1 <0>         0.0927
     50 H15        -1.8081   -6.0782    0.8985 H         1 <0>         0.0578
     51 H16        -3.6298   -5.2118   -0.5434 H         1 <0>         0.0783
     52 H17        -2.0534   -5.0846   -1.3601 H         1 <0>         0.0741
     53 H18        -1.0891   -4.3486    3.2481 H         1 <0>         0.0732
     54 H19        -2.6557   -4.3233    4.0928 H         1 <0>         0.0723
     55 H20        -2.3754   -6.8249    2.8122 H         1 <0>         0.3972
     56 H21        -2.8356   -9.4763    4.2182 H         1 <0>         0.0981
     57 H22        -2.2784   -8.3811    2.9303 H         1 <0>         0.1105
     58 H23        -1.3507  -10.8066    2.8696 H         1 <0>         0.1259
     59 H24        -0.1412   -9.4948    2.7791 H         1 <0>         0.1308
     60 H25        -0.6343  -13.1292    3.5283 H         1 <0>         0.1692
     61 H26        -0.0957  -15.0770    4.9006 H         1 <0>         0.1545
     62 H27         0.7305  -14.8907    7.1612 H         1 <0>         0.1570
     63 H28         1.1245  -12.7751    8.2717 H         1 <0>         0.1679
     64 H29        -1.7952   -8.0813    8.5825 H         1 <0>         0.1423
     65 H30        -3.5541   -9.2912    9.8087 H         1 <0>         0.1477
     66 H31        -4.1044  -11.8794    6.4588 H         1 <0>         0.1442
     67 H32        -2.3519  -10.6608    5.2319 H         1 <0>         0.1351
     68 H33         0.9163  -10.0453    7.7598 H         1 <0>         0.4559
@<TRIPOS>BOND
     1    1    2 1
     2    1   38 1
     3    1   39 1
     4    1   40 1
     5    2    3 1
     6    2   41 1
     7    2   42 1
     8    3    4 1
     9    4    5 2
    10    4    6 1
    11    6   11 1
    12    6    7 1
    13    6   43 1
    14    7    8 1
    15    7   44 1
    16    7   45 1
    17    8    9 1
    18    8   46 1
    19    8   47 1
    20    9   10 1
    21    9   12 1
    22    9   48 1
    23   10   11 1
    24   10   49 1
    25   10   50 1
    26   11   51 1
    27   11   52 1
    28   12   13 1
    29   12   53 1
    30   12   54 1
    31   13   14 am
    32   13   55 1
    33   14   15 2
    34   14   16 am
    35   16   29 1
    36   16   17 1
    37   17   18 1
    38   17   56 1
    39   17   57 1
    40   18   19 1
    41   18   58 1
    42   18   59 1
    43   19   27 1
    44   19   20 2
    45   20   25 ar
    46   20   21 ar
    47   21   22 ar
    48   21   60 1
    49   22   23 ar
    50   22   61 1
    51   23   24 ar
    52   23   62 1
    53   24   25 ar
    54   24   63 1
    55   25   26 2
    56   26   27 1
    57   26   68 1
    58   27   28 1
    59   27   29 1
    60   29   30 1
    61   29   31 1
    62   31   36 ar
    63   31   32 ar
    64   32   33 ar
    65   32   64 1
    66   33   34 ar
    67   33   65 1
    68   34   35 ar
    69   34   37 1
    70   35   36 ar
    71   35   66 1
    72   36   67 1
@<TRIPOS>MOLECULE
ZINC67292517
   50    53     0     0     0
SMALL
USER_CHARGES

@<TRIPOS>ATOM
      1 C1         -1.8899    0.7393    0.3689 C.3       1 <0>        -0.1358
      2 C2         -0.8636   -0.3455    0.1668 C.ar      1 <0>        -0.0307
      3 C3         -0.7935   -1.0151   -1.0372 C.ar      1 <0>        -0.0981
      4 C4          0.1491   -2.0118   -1.2247 C.ar      1 <0>         0.0046
      5 C5          1.0270   -2.3436   -0.2062 C.ar      1 <0>        -0.1004
      6 C6          0.9677   -1.6820    1.0023 C.ar      1 <0>        -0.0694
      7 C7          0.0226   -0.6713    1.1961 C.ar      1 <0>         0.0140
      8 N1         -0.0379   -0.0073    2.3904 N.pl3     1 <0>        -0.4578
      9 C8         -0.1017   -0.6839    3.5165 C.2       1 <0>         0.5247
     10 C9         -0.1861    0.0099    4.8170 C.2       1 <0>        -0.2559
     11 C10        -0.8009   -0.6720    5.8587 C.2       1 <0>         0.1258
     12 C11        -1.3104   -2.0157    5.5755 C.ar      1 <0>        -0.1621
     13 C12        -2.1688   -2.6604    6.4741 C.ar      1 <0>        -0.0035
     14 C13        -2.6362   -3.9227    6.1822 C.ar      1 <0>        -0.1030
     15 C14        -2.2609   -4.5554    5.0047 C.ar      1 <0>        -0.0083
     16 C15        -1.4144   -3.9324    4.1102 C.ar      1 <0>        -0.1030
     17 C16        -0.9300   -2.6621    4.3844 C.ar      1 <0>         0.1365
     18 O1         -0.0977   -2.0414    3.5181 O.3       1 <0>        -0.2031
     19 Br1        -3.7949   -4.7994    7.3925 Br        1 <0>         0.0076
     20 C17         0.3585    1.3659    5.0015 C.2       1 <0>         0.5759
     21 O2          0.8357    1.9635    4.0557 O.2       1 <0>        -0.5349
     22 N2          0.3281    1.9446    6.2184 N.am      1 <0>        -0.6971
     23 C18         0.9517    3.2544    6.4224 C.3       1 <0>         0.1187
     24 C19         0.7766    3.6809    7.8813 C.3       1 <0>         0.0637
     25 H1          1.2354    2.9492    8.5464 H         1 <0>         0.0833
     26 C20         1.3993    5.0810    8.1107 C.3       1 <0>        -0.1486
     27 C21         0.5865    5.5671    9.3416 C.3       1 <0>        -0.1569
     28 C22        -0.8001    4.9373    9.0880 C.3       1 <0>         0.0506
     29 O3         -0.6175    3.8325    8.1926 O.3       1 <0>        -0.3830
     30 Cl1         0.2306   -2.8495   -2.7430 Cl        1 <0>        -0.0271
     31 H2         -1.4702    1.6979    0.0639 H         1 <0>         0.0965
     32 H3         -2.7724    0.5212   -0.2325 H         1 <0>         0.0960
     33 H4         -2.1694    0.7835    1.4216 H         1 <0>         0.0664
     34 H5         -1.4757   -0.7616   -1.8352 H         1 <0>         0.1584
     35 H6          1.7595   -3.1225   -0.3587 H         1 <0>         0.1572
     36 H7          1.6526   -1.9420    1.7958 H         1 <0>         0.1472
     37 H8         -0.8991   -0.2293    6.8389 H         1 <0>         0.1894
     38 H9         -2.4626   -2.1709    7.3909 H         1 <0>         0.1685
     39 H10        -2.6349   -5.5448    4.7867 H         1 <0>         0.1692
     40 H11        -1.1296   -4.4337    3.1969 H         1 <0>         0.1685
     41 H12        -0.1068    1.4937    6.9590 H         1 <0>         0.4086
     42 H13         2.0141    3.1916    6.1872 H         1 <0>         0.0944
     43 H14         0.4779    3.9880    5.7701 H         1 <0>         0.0894
     44 H15         2.4609    5.0051    8.3461 H         1 <0>         0.0917
     45 H16         1.2350    5.7298    7.2504 H         1 <0>         0.0861
     46 H17         1.0208    5.1892   10.2671 H         1 <0>         0.0816
     47 H18         0.5212    6.6550    9.3583 H         1 <0>         0.0896
     48 H19        -1.2230    4.5834   10.0282 H         1 <0>         0.0746
     49 H20        -1.4641    5.6745    8.6368 H         1 <0>         0.0749
     50 H21        -0.0336    0.9625    2.4069 H         1 <0>         0.4649
@<TRIPOS>BOND
     1    1    2 1
     2    1   31 1
     3    1   32 1
     4    1   33 1
     5    2    7 ar
     6    2    3 ar
     7    3    4 ar
     8    3   34 1
     9    4    5 ar
    10    4   30 1
    11    5    6 ar
    12    5   35 1
    13    6    7 ar
    14    6   36 1
    15    7    8 1
    16    8    9 2
    17    8   50 1
    18    9   18 1
    19    9   10 1
    20   10   11 2
    21   10   20 1
    22   11   12 1
    23   11   37 1
    24   12   17 ar
    25   12   13 ar
    26   13   14 ar
    27   13   38 1
    28   14   15 ar
    29   14   19 1
    30   15   16 ar
    31   15   39 1
    32   16   17 ar
    33   16   40 1
    34   17   18 1
    35   20   21 2
    36   20   22 am
    37   22   23 1
    38   22   41 1
    39   23   24 1
    40   23   42 1
    41   23   43 1
    42   24   25 1
    43   24   29 1
    44   24   26 1
    45   26   27 1
    46   26   44 1
    47   26   45 1
    48   27   28 1
    49   27   46 1
    50   27   47 1
    51   28   29 1
    52   28   48 1
    53   28   49 1
@<TRIPOS>MOLECULE
ZINC13556688
   66    69     0     0     0
SMALL
USER_CHARGES
(2R)-2-(2-oxo-4-phenyl-chromen-7-yl)oxy-N-(2,2,6,6-tetramethyl-4-piperidyl)propanamide
@<TRIPOS>ATOM
      1 C1          1.5378    2.9361    1.1565 C.3       1 <0>        -0.1813
      2 C2          1.2769    1.9767   -0.0064 C.3       1 <0>         0.0657
      3 H1          1.1677    2.5459   -0.9295 H         1 <0>         0.1066
      4 C3          0.0129    1.1997    0.2573 C.2       1 <0>         0.5251
      5 O1          0.0620   -0.0011    0.4204 O.2       1 <0>        -0.4992
      6 N1         -1.1729    1.8385    0.3063 N.am      1 <0>        -0.7272
      7 C4         -2.4053    1.0806    0.5572 C.3       1 <0>         0.1408
      8 C5         -2.9460    0.5457   -0.7685 C.3       1 <0>        -0.1406
      9 C6         -4.2419   -0.2286   -0.5409 C.3       1 <0>         0.0658
     10 C7         -4.7534    1.2527    1.4215 C.3       1 <0>         0.0675
     11 C8         -3.4524    2.0107    1.1690 C.3       1 <0>        -0.1363
     12 C9         -4.5904    0.3496    2.6498 C.3       1 <0>        -0.1759
     13 C10        -5.8410    2.2959    1.7621 C.3       1 <0>        -0.1841
     14 C11        -3.9202   -1.5974    0.0707 C.3       1 <0>        -0.1738
     15 C12        -4.8796   -0.4849   -1.9247 C.3       1 <0>        -0.1836
     16 O2          2.3752    1.0711   -0.1323 O.3       1 <0>        -0.2761
     17 C13         3.4444    1.4954   -0.8533 C.ar      1 <0>         0.1828
     18 C14         3.4795    2.8029   -1.3332 C.ar      1 <0>        -0.2307
     19 C15         4.5482    3.2431   -2.0601 C.ar      1 <0>        -0.0122
     20 C16         5.6128    2.3777   -2.3237 C.ar      1 <0>        -0.1778
     21 C17         6.7780    2.8259   -3.1044 C.2       1 <0>         0.0788
     22 C18         7.7951    1.9168   -3.3267 C.2       1 <0>        -0.2444
     23 C19         7.6855    0.6152   -2.8086 C.2       1 <0>         0.5131
     24 O3          8.5865   -0.1802   -3.0095 O.2       1 <0>        -0.4528
     25 O4          6.6156    0.2236   -2.0988 O.3       1 <0>        -0.2702
     26 C20         5.5849    1.0576   -1.8427 C.ar      1 <0>         0.1970
     27 C21         4.4944    0.6268   -1.1013 C.ar      1 <0>        -0.1671
     28 C22         6.8578    4.2052   -3.6335 C.ar      1 <0>        -0.0743
     29 C23         5.7903    4.7421   -4.3546 C.ar      1 <0>        -0.0995
     30 C24         5.8687    6.0309   -4.8403 C.ar      1 <0>        -0.1192
     31 C25         7.0071    6.7870   -4.6237 C.ar      1 <0>        -0.1015
     32 C26         8.0713    6.2586   -3.9145 C.ar      1 <0>        -0.1154
     33 C27         8.0033    4.9731   -3.4185 C.ar      1 <0>        -0.0892
     34 H2          2.4521    3.4981    0.9658 H         1 <0>         0.0850
     35 H3          0.7001    3.6269    1.2526 H         1 <0>         0.0807
     36 H4          1.6470    2.3669    2.0796 H         1 <0>         0.0803
     37 H5         -1.2122    2.7988    0.1758 H         1 <0>         0.4077
     38 H6         -2.1833    0.2605    1.2352 H         1 <0>         0.1090
     39 H7         -3.1358    1.3812   -1.4461 H         1 <0>         0.0923
     40 H8         -2.2033   -0.1142   -1.2229 H         1 <0>         0.1158
     41 H9         -3.0752    2.4099    2.1133 H         1 <0>         0.1189
     42 H10        -3.6424    2.8417    0.4860 H         1 <0>         0.0965
     43 H11        -4.3514    0.9602    3.5206 H         1 <0>         0.1067
     44 H12        -5.5197   -0.1910    2.8292 H         1 <0>         0.0837
     45 H13        -3.7842   -0.3623    2.4730 H         1 <0>         0.0832
     46 H14        -5.9581    2.9850    0.9257 H         1 <0>         0.0822
     47 H15        -6.7867    1.7871    1.9489 H         1 <0>         0.0842
     48 H16        -5.5454    2.8515    2.6520 H         1 <0>         0.1066
     49 H17        -4.8339   -2.1876    0.1412 H         1 <0>         0.0827
     50 H18        -3.1997   -2.1172   -0.5607 H         1 <0>         0.1070
     51 H19        -3.4985   -1.4604    1.0665 H         1 <0>         0.0819
     52 H20        -5.1242    0.4679   -2.3941 H         1 <0>         0.0808
     53 H21        -4.1758   -1.0299   -2.5538 H         1 <0>         0.1061
     54 H22        -5.7887   -1.0737   -1.8023 H         1 <0>         0.0837
     55 H23         2.6565    3.4719   -1.1294 H         1 <0>         0.1413
     56 H24         4.5707    4.2576   -2.4299 H         1 <0>         0.1470
     57 H25         8.6674    2.2045   -3.8947 H         1 <0>         0.1679
     58 H26         4.4624   -0.3839   -0.7219 H         1 <0>         0.1564
     59 H27         4.9031    4.1513   -4.5285 H         1 <0>         0.1274
     60 H28         5.0416    6.4491   -5.3947 H         1 <0>         0.1297
     61 H29         7.0652    7.7940   -5.0096 H         1 <0>         0.1291
     62 H30         8.9569    6.8541   -3.7485 H         1 <0>         0.1319
     63 H31         8.8344    4.5620   -2.8648 H         1 <0>         0.1308
     64 N2         -5.2726    0.4934    0.2523 N.4       1 <0>        -0.5091
     65 H32        -5.9498   -0.1971    0.5971 H         1 <0>         0.4328
     66 H33        -5.7474    1.1563   -0.3717 H         1 <0>         0.4292
@<TRIPOS>BOND
     1    1    2 1
     2    1   34 1
     3    1   35 1
     4    1   36 1
     5    2    3 1
     6    2    4 1
     7    2   16 1
     8    4    5 2
     9    4    6 am
    10    6    7 1
    11    6   37 1
    12    7   11 1
    13    7    8 1
    14    7   38 1
    15    8    9 1
    16    8   39 1
    17    8   40 1
    18    9   14 1
    19    9   15 1
    20    9   64 1
    21   10   11 1
    22   10   12 1
    23   10   13 1
    24   10   64 1
    25   11   41 1
    26   11   42 1
    27   12   43 1
    28   12   44 1
    29   12   45 1
    30   13   46 1
    31   13   47 1
    32   13   48 1
    33   14   49 1
    34   14   50 1
    35   14   51 1
    36   15   52 1
    37   15   53 1
    38   15   54 1
    39   16   17 1
    40   17   27 ar
    41   17   18 ar
    42   18   19 ar
    43   18   55 1
    44   19   20 ar
    45   19   56 1
    46   20   26 ar
    47   20   21 1
    48   21   22 2
    49   21   28 1
    50   22   23 1
    51   22   57 1
    52   23   24 2
    53   23   25 1
    54   25   26 1
    55   26   27 ar
    56   27   58 1
    57   28   33 ar
    58   28   29 ar
    59   29   30 ar
    60   29   59 1
    61   30   31 ar
    62   30   60 1
    63   31   32 ar
    64   31   61 1
    65   32   33 ar
    66   32   62 1
    67   33   63 1
    68   64   65 1
    69   64   66 1
@<TRIPOS>MOLECULE
ZINC33769033
   54    56     0     0     0
SMALL
USER_CHARGES
ethyl 2-[(4-bromobenzoyl)amino]-5,5,7,7-tetramethyl-4,6-dihydrothieno[2,3-c]pyridine-3-carboxylate
@<TRIPOS>ATOM
      1 C1          1.8619   -4.7813    2.4304 C.3       1 <0>        -0.1570
      2 C2          1.7725   -4.1847    1.0244 C.3       1 <0>         0.0561
      3 O1          1.5944   -2.7468    1.1192 O.3       1 <0>        -0.3503
      4 C3          1.4969   -2.0640   -0.0400 C.2       1 <0>         0.5222
      5 O2          1.5592   -2.6553   -1.1012 O.2       1 <0>        -0.4827
      6 C4          1.3161   -0.6110   -0.0210 C.2       1 <0>        -0.2185
      7 C5          0.0021   -0.0041    0.0020 C.2       1 <0>        -0.0311
      8 C6         -0.0163    1.3491    0.0095 C.2       1 <0>        -0.2962
      9 S1          1.6893    1.8188   -0.0043 S.3       1 <0>         0.3317
     10 C7          2.4137    0.2449   -0.0270 C.2       1 <0>         0.1164
     11 N1          3.7586   -0.0843   -0.0473 N.am      1 <0>        -0.6306
     12 C8          4.6907    0.8891   -0.0502 C.2       1 <0>         0.5679
     13 O3          4.3508    2.0562   -0.0349 O.2       1 <0>        -0.4896
     14 C9          6.1256    0.5379   -0.0718 C.ar      1 <0>        -0.1326
     15 C10         6.5193   -0.8018   -0.0837 C.ar      1 <0>        -0.0757
     16 C11         7.8601   -1.1231   -0.1106 C.ar      1 <0>        -0.0942
     17 C12         8.8154   -0.1206   -0.1130 C.ar      1 <0>        -0.0560
     18 C13         8.4314    1.2098   -0.0951 C.ar      1 <0>        -0.0941
     19 C14         7.0937    1.5441   -0.0748 C.ar      1 <0>        -0.0410
     20 Br1        10.6520   -0.5702   -0.1415 Br        1 <0>        -0.0218
     21 C15        -1.2290    2.2214    0.0172 C.3       1 <0>         0.1737
     22 N2         -2.4486    1.4511    0.2345 N.4       1 <0>        -0.5159
     23 C16        -2.3268    0.1177    0.7991 C.3       1 <0>         0.0594
     24 C17        -1.3266   -0.7478    0.0239 C.3       1 <0>        -0.0757
     25 C18        -3.7015   -0.5735    0.7293 C.3       1 <0>        -0.1780
     26 C19        -1.9062    0.1801    2.2704 C.3       1 <0>        -0.1741
     27 C20        -1.0759    3.2954    1.1034 C.3       1 <0>        -0.1790
     28 C21        -1.3223    2.9335   -1.3457 C.3       1 <0>        -0.1769
     29 H1          1.9968   -5.8706    2.3586 H         1 <0>         0.0879
     30 H2          0.9354   -4.5621    2.9813 H         1 <0>         0.0682
     31 H3          2.7178   -4.3401    2.9622 H         1 <0>         0.0697
     32 H4          2.6990   -4.4039    0.4735 H         1 <0>         0.0756
     33 H5          0.9166   -4.6259    0.4926 H         1 <0>         0.0754
     34 H6          4.0662   -1.1403   -0.0611 H         1 <0>         0.4511
     35 H7          5.7753   -1.5846   -0.0769 H         1 <0>         0.1316
     36 H8          8.1658   -2.1589   -0.1254 H         1 <0>         0.1473
     37 H9          9.1812    1.9871   -0.0974 H         1 <0>         0.1494
     38 H10         6.7955    2.5820   -0.0616 H         1 <0>         0.1515
     39 H11        -3.1066    1.9943    0.9288 H         1 <0>         0.4508
     40 H12        -1.6747   -0.9070   -1.0074 H         1 <0>         0.1087
     41 H13        -1.1943   -1.7204    0.5205 H         1 <0>         0.1158
     42 H14        -3.6251   -1.5854    1.1537 H         1 <0>         0.1075
     43 H15        -4.0259   -0.6394   -0.3197 H         1 <0>         0.0837
     44 H16        -4.4352    0.0107    1.3040 H         1 <0>         0.0870
     45 H17        -1.8219   -0.8408    2.6712 H         1 <0>         0.1025
     46 H18        -2.6608    0.7381    2.8441 H         1 <0>         0.0832
     47 H19        -0.9338    0.6878    2.3525 H         1 <0>         0.0823
     48 H20        -1.9679    3.9390    1.1109 H         1 <0>         0.0922
     49 H21        -0.1852    3.9056    0.8927 H         1 <0>         0.1056
     50 H22        -0.9649    2.8111    2.0848 H         1 <0>         0.0868
     51 H23        -2.2106    3.5821   -1.3604 H         1 <0>         0.0907
     52 H24        -1.4025    2.1836   -2.1465 H         1 <0>         0.0853
     53 H25        -0.4204    3.5432   -1.5033 H         1 <0>         0.1067
     54 H26        -2.9670    1.3069   -0.7249 H         1 <0>         0.4471
@<TRIPOS>BOND
     1    1    2 1
     2    1   29 1
     3    1   30 1
     4    1   31 1
     5    2    3 1
     6    2   32 1
     7    2   33 1
     8    3    4 1
     9    4    5 2
    10    4    6 1
    11    6   10 2
    12    6    7 1
    13    7   24 1
    14    7    8 2
    15    8    9 1
    16    8   21 1
    17    9   10 1
    18   10   11 1
    19   11   12 am
    20   11   34 1
    21   12   13 2
    22   12   14 1
    23   14   19 ar
    24   14   15 ar
    25   15   16 ar
    26   15   35 1
    27   16   17 ar
    28   16   36 1
    29   17   18 ar
    30   17   20 1
    31   18   19 ar
    32   18   37 1
    33   19   38 1
    34   21   22 1
    35   21   27 1
    36   21   28 1
    37   22   23 1
    38   22   39 1
    39   22   54 1
    40   23   24 1
    41   23   25 1
    42   23   26 1
    43   24   40 1
    44   24   41 1
    45   25   42 1
    46   25   43 1
    47   25   44 1
    48   26   45 1
    49   26   46 1
    50   26   47 1
    51   27   48 1
    52   27   49 1
    53   27   50 1
    54   28   51 1
    55   28   52 1
    56   28   53 1
@<TRIPOS>MOLECULE
ZINC39618013
   52    56     0     0     0
SMALL
USER_CHARGES

@<TRIPOS>ATOM
      1 C1          1.1011    0.7543    0.5441 C.3       1 <0>         0.0216
      2 O1          0.9851   -0.6629    0.4017 O.3       1 <0>        -0.2867
      3 C2          1.6348   -1.4297    1.3154 C.ar      1 <0>         0.1773
      4 C3          2.3640   -0.8334    2.3311 C.ar      1 <0>        -0.2150
      5 C4          3.0252   -1.6146    3.2601 C.ar      1 <0>        -0.0499
      6 C5          2.9639   -2.9953    3.1834 C.ar      1 <0>        -0.1629
      7 C6          2.2416   -3.6043    2.1781 C.ar      1 <0>        -0.0515
      8 C7          1.5655   -2.8261    1.2377 C.ar      1 <0>        -0.0794
      9 C8          0.7854   -3.4722    0.1618 C.2       1 <0>         0.2980
     10 N1          0.1146   -2.8641   -0.7889 N.2       1 <0>        -0.2423
     11 N2         -0.4464   -3.7311   -1.5538 N.2       1 <0>        -0.2259
     12 C9         -0.1683   -4.9463   -1.1387 C.2       1 <0>         0.0666
     13 N3          0.6299   -4.8248   -0.0364 N.pl3     1 <0>        -0.2996
     14 N4          1.1606   -5.8354    0.7139 N.3       1 <0>        -0.5804
     15 S1         -0.7162   -6.4521   -1.8715 S.3       1 <0>         0.1029
     16 C10        -1.7181   -5.9133   -3.2845 C.3       1 <0>        -0.1402
     17 H1         -2.4840   -5.2353   -2.9082 H         1 <0>         0.1975
     18 C11        -2.4157   -7.1342   -3.8530 C.2       1 <0>         0.2654
     19 C12        -2.1731   -7.4357   -5.1960 C.ar      1 <0>        -0.1712
     20 C13        -2.7815   -8.5532   -5.8053 C.ar      1 <0>         0.0112
     21 C14        -2.5285   -8.8238   -7.1142 C.ar      1 <0>        -0.1611
     22 C15        -1.6782   -8.0191   -7.8688 C.ar      1 <0>         0.0776
     23 C16        -1.0620   -6.9273   -7.3367 C.ar      1 <0>        -0.2150
     24 C17        -1.2776   -6.5867   -5.9895 C.ar      1 <0>         0.3386
     25 N5         -0.6719   -5.5144   -5.4684 N.am      1 <0>        -0.5940
     26 C18        -0.8223   -5.1298   -4.2167 C.2       1 <0>         0.5096
     27 O2         -0.2389   -4.1417   -3.8111 O.2       1 <0>        -0.3790
     28 C19        -3.2749   -7.9337   -3.0578 C.ar      1 <0>        -0.1677
     29 C20        -2.9395   -9.2684   -2.7769 C.ar      1 <0>        -0.0609
     30 C21        -3.7810  -10.0365   -2.0035 C.ar      1 <0>        -0.1150
     31 C22        -4.9551   -9.4972   -1.5034 C.ar      1 <0>        -0.0561
     32 C23        -5.2952   -8.1818   -1.7746 C.ar      1 <0>        -0.1132
     33 C24        -4.4645   -7.3948   -2.5407 C.ar      1 <0>        -0.0537
     34 H2          2.1502    1.0417    0.4747 H         1 <0>         0.0585
     35 H3          0.5364    1.2464   -0.2477 H         1 <0>         0.1048
     36 H4          0.7052    1.0556    1.5139 H         1 <0>         0.0586
     37 H5          2.4162    0.2433    2.3970 H         1 <0>         0.1391
     38 H6          3.5931   -1.1453    4.0498 H         1 <0>         0.1337
     39 H7          3.4838   -3.5982    3.9131 H         1 <0>         0.1337
     40 H8          2.1964   -4.6819    2.1213 H         1 <0>         0.1511
     41 H9          0.5367   -6.0957    1.4630 H         1 <0>         0.3726
     42 H10         1.3869   -6.6326    0.1384 H         1 <0>         0.3748
     43 H11        -3.4433   -9.1895   -5.2365 H         1 <0>         0.1667
     44 H12        -2.9960   -9.6801   -7.5774 H         1 <0>         0.1637
     45 H13        -1.5024   -8.2680   -8.9049 H         1 <0>         0.1677
     46 H14        -0.4080   -6.3239   -7.9487 H         1 <0>         0.1711
     47 H15        -2.0250   -9.6909   -3.1664 H         1 <0>         0.1403
     48 H16        -3.5250  -11.0630   -1.7863 H         1 <0>         0.1470
     49 H17        -5.6100  -10.1065   -0.8982 H         1 <0>         0.1438
     50 H18        -6.2129   -7.7710   -1.3804 H         1 <0>         0.1466
     51 H19        -4.7291   -6.3683   -2.7473 H         1 <0>         0.1392
     52 H20        -0.0906   -4.9915   -6.0426 H         1 <0>         0.4413
@<TRIPOS>BOND
     1    1    2 1
     2    1   34 1
     3    1   35 1
     4    1   36 1
     5    2    3 1
     6    3    8 ar
     7    3    4 ar
     8    4    5 ar
     9    4   37 1
    10    5    6 ar
    11    5   38 1
    12    6    7 ar
    13    6   39 1
    14    7    8 ar
    15    7   40 1
    16    8    9 1
    17    9   13 1
    18    9   10 2
    19   10   11 1
    20   11   12 2
    21   12   13 1
    22   12   15 1
    23   13   14 1
    24   14   41 1
    25   14   42 1
    26   15   16 1
    27   16   17 1
    28   16   26 1
    29   16   18 1
    30   18   19 2
    31   18   28 1
    32   19   24 ar
    33   19   20 ar
    34   20   21 ar
    35   20   43 1
    36   21   22 ar
    37   21   44 1
    38   22   23 ar
    39   22   45 1
    40   23   24 ar
    41   23   46 1
    42   24   25 2
    43   25   26 am
    44   25   52 1
    45   26   27 2
    46   28   33 ar
    47   28   29 ar
    48   29   30 ar
    49   29   47 1
    50   30   31 ar
    51   30   48 1
    52   31   32 ar
    53   31   49 1
    54   32   33 ar
    55   32   50 1
    56   33   51 1
@<TRIPOS>MOLECULE
ZINC12469505
   59    64     0     0     0
SMALL
USER_CHARGES

@<TRIPOS>ATOM
      1 C1         -0.0162    1.3409    0.0094 C.2       1 <0>        -0.2150
      2 C2          1.3313    1.7689   -0.0012 C.2       1 <0>        -0.1769
      3 C3          2.0923    0.6599   -0.0144 C.2       1 <0>        -0.0402
      4 O1          1.2819   -0.4111   -0.0124 O.3       1 <0>        -0.1676
      5 C4          0.0021   -0.0041    0.0020 C.2       1 <0>        -0.0224
      6 C5          3.5989    0.6249   -0.0294 C.3       1 <0>         0.2486
      7 H1          3.9838    1.5828   -0.3794 H         1 <0>         0.1093
      8 C6          4.1214    0.3457    1.3841 C.3       1 <0>        -0.1560
      9 C7          5.6540    0.3769    1.3898 C.3       1 <0>         0.1304
     10 H2          5.9989    1.3999    1.2391 H         1 <0>         0.1370
     11 N1          6.1497   -0.4733    0.3038 N.pl3     1 <0>        -0.3972
     12 C8          5.3915   -0.8544   -0.7668 C.2       1 <0>         0.3648
     13 C9          6.1522   -1.6285   -1.5656 C.2       1 <0>        -0.2611
     14 C10         7.4300   -1.7302   -0.9703 C.2       1 <0>         0.0687
     15 N2          7.4179   -1.0323    0.1518 N.2       1 <0>        -0.2519
     16 C11         8.5795   -2.4856   -1.5090 C.2       1 <0>         0.6004
     17 O2          8.4707   -3.0930   -2.5565 O.2       1 <0>        -0.5219
     18 N3          9.7489   -2.5015   -0.8392 N.am      1 <0>        -0.7122
     19 C12        10.8890   -3.2507   -1.3734 C.3       1 <0>         0.1283
     20 C13        12.0830   -3.1052   -0.4279 C.3       1 <0>        -0.0646
     21 C14        12.4575   -1.6270   -0.3030 C.3       1 <0>        -0.1031
     22 C15        13.6516   -1.4815    0.6425 C.3       1 <0>        -0.0854
     23 C16        14.8421   -2.2639    0.0846 C.3       1 <0>        -0.1089
     24 C17        14.4676   -3.7421   -0.0402 C.3       1 <0>        -0.0846
     25 C18        13.2736   -3.8876   -0.9858 C.3       1 <0>        -0.0995
     26 C19        14.0966   -4.2924    1.3383 C.3       1 <0>        -0.1089
     27 C20        12.9060   -3.5100    1.8962 C.3       1 <0>        -0.0856
     28 C21        13.2805   -2.0318    2.0211 C.3       1 <0>        -0.1094
     29 C22        11.7119   -3.6555    0.9507 C.3       1 <0>        -0.1035
     30 N4          4.0609   -0.4527   -0.9263 N.pl3     1 <0>        -0.7258
     31 C23         6.1722   -0.1463    2.7309 C.3       1 <0>         0.4566
     32 F1          5.7329   -1.4611    2.9198 F         1 <0>        -0.1716
     33 F2          7.5709   -0.1170    2.7339 F         1 <0>        -0.1596
     34 F3          5.6866    0.6607    3.7654 F         1 <0>        -0.1718
     35 H3         -0.8920    1.9726    0.0252 H         1 <0>         0.1540
     36 H4          1.6822    2.7903    0.0004 H         1 <0>         0.1541
     37 H5         -0.8653   -0.6475    0.0072 H         1 <0>         0.2078
     38 H6          3.7413    1.1053    2.0672 H         1 <0>         0.1250
     39 H7          3.7781   -0.6363    1.7096 H         1 <0>         0.1034
     40 H8          5.8416   -2.0880   -2.4923 H         1 <0>         0.1636
     41 H9          9.8358   -2.0169   -0.0034 H         1 <0>         0.4077
     42 H10        10.6222   -4.3037   -1.4623 H         1 <0>         0.0725
     43 H11        11.1533   -2.8586   -2.3555 H         1 <0>         0.0727
     44 H12        12.7219   -1.2349   -1.2851 H         1 <0>         0.0654
     45 H13        11.6093   -1.0696    0.0945 H         1 <0>         0.0621
     46 H14        13.9184   -0.4284    0.7315 H         1 <0>         0.0699
     47 H15        15.1065   -1.8718   -0.8975 H         1 <0>         0.0619
     48 H16        15.6928   -2.1602    0.7582 H         1 <0>         0.0617
     49 H17        15.3158   -4.2995   -0.4377 H         1 <0>         0.0713
     50 H18        13.0068   -4.9406   -1.0747 H         1 <0>         0.0664
     51 H19        13.5379   -3.4955   -1.9678 H         1 <0>         0.0664
     52 H20        13.8298   -5.3455    1.2493 H         1 <0>         0.0619
     53 H21        14.9472   -4.1887    2.0119 H         1 <0>         0.0617
     54 H22        12.6416   -3.9020    2.8783 H         1 <0>         0.0699
     55 H23        14.1312   -1.9282    2.6947 H         1 <0>         0.0618
     56 H24        12.4323   -1.4744    2.4185 H         1 <0>         0.0618
     57 H25        10.8637   -3.0981    1.3481 H         1 <0>         0.0621
     58 H26        11.4451   -4.7086    0.8617 H         1 <0>         0.0654
     59 H27         3.4757   -0.8597   -1.5842 H         1 <0>         0.4297
@<TRIPOS>BOND
     1    1    5 2
     2    1    2 1
     3    1   35 1
     4    2    3 2
     5    2   36 1
     6    3    4 1
     7    3    6 1
     8    4    5 1
     9    5   37 1
    10    6    7 1
    11    6   30 1
    12    6    8 1
    13    8    9 1
    14    8   38 1
    15    8   39 1
    16    9   10 1
    17    9   11 1
    18    9   31 1
    19   11   15 1
    20   11   12 1
    21   12   13 2
    22   12   30 1
    23   13   14 1
    24   13   40 1
    25   14   15 2
    26   14   16 1
    27   16   17 2
    28   16   18 am
    29   18   19 1
    30   18   41 1
    31   19   20 1
    32   19   42 1
    33   19   43 1
    34   20   25 1
    35   20   29 1
    36   20   21 1
    37   21   22 1
    38   21   44 1
    39   21   45 1
    40   22   28 1
    41   22   23 1
    42   22   46 1
    43   23   24 1
    44   23   47 1
    45   23   48 1
    46   24   25 1
    47   24   26 1
    48   24   49 1
    49   25   50 1
    50   25   51 1
    51   26   27 1
    52   26   52 1
    53   26   53 1
    54   27   28 1
    55   27   29 1
    56   27   54 1
    57   28   55 1
    58   28   56 1
    59   29   57 1
    60   29   58 1
    61   30   59 1
    62   31   32 1
    63   31   33 1
    64   31   34 1
@<TRIPOS>MOLECULE
ZINC67294414
   50    53     0     0     0
SMALL
USER_CHARGES

@<TRIPOS>ATOM
      1 C1         -2.0331    1.1227   -0.3575 C.3       1 <0>        -0.1154
      2 C2         -1.6509   -0.3338   -0.2954 C.ar      1 <0>        -0.1369
      3 C3         -0.8188   -0.8824   -1.2620 C.ar      1 <0>        -0.0565
      4 C4         -0.4921   -2.2234   -1.1678 C.ar      1 <0>        -0.1706
      5 C5         -1.0052   -2.9721   -0.1141 C.ar      1 <0>         0.3188
      6 N1         -1.7957   -2.4124    0.7880 N.ar      1 <0>        -0.5043
      7 C6         -2.1200   -1.1349    0.7266 C.ar      1 <0>         0.1270
      8 N2         -0.6847   -4.3236   -0.0074 N.am      1 <0>        -0.6576
      9 C7         -0.2388   -4.9976   -1.0860 C.2       1 <0>         0.5806
     10 O1         -0.0912   -4.4197   -2.1461 O.2       1 <0>        -0.4710
     11 C8          0.0694   -6.4324   -0.9811 C.2       1 <0>        -0.2816
     12 C9          0.3982   -7.1832   -2.1010 C.2       1 <0>         0.1757
     13 C10         0.6526   -8.5677   -1.9282 C.ar      1 <0>        -0.1907
     14 C11         1.1815   -9.3285   -2.9819 C.ar      1 <0>         0.0037
     15 C12         1.4614  -10.6498   -2.7922 C.ar      1 <0>        -0.1528
     16 C13         1.2184  -11.2544   -1.5600 C.ar      1 <0>         0.2245
     17 C14         0.6782  -10.5230   -0.5127 C.ar      1 <0>        -0.1565
     18 C15         0.3811   -9.1824   -0.6906 C.ar      1 <0>         0.1594
     19 O2         -0.1881   -8.4691    0.3126 O.3       1 <0>        -0.1985
     20 C16         0.0470   -7.1289    0.3204 C.2       1 <0>         0.5125
     21 N3          0.2433   -6.4762    1.4450 N.pl3     1 <0>        -0.4913
     22 C17         0.0510   -7.1062    2.6443 C.ar      1 <0>        -0.0007
     23 C18        -1.1289   -7.8121    2.8846 C.ar      1 <0>        -0.0489
     24 C19        -1.3166   -8.4462    4.0970 C.ar      1 <0>        -0.0589
     25 C20        -0.3383   -8.3841    5.0750 C.ar      1 <0>        -0.0237
     26 C21         0.8348   -7.6870    4.8468 C.ar      1 <0>        -0.1787
     27 C22         1.0399   -7.0510    3.6353 C.ar      1 <0>         0.1705
     28 O3          2.1950   -6.3703    3.4091 O.3       1 <0>        -0.3136
     29 C23         3.1577   -6.3571    4.4651 C.3       1 <0>         0.0192
     30 Cl1        -2.7843   -9.3238    4.3962 Cl        1 <0>        -0.0268
     31 O4          1.5127  -12.5672   -1.3838 O.3       1 <0>        -0.4784
     32 H1         -1.3019    1.7140    0.1937 H         1 <0>         0.0790
     33 H2         -2.0544    1.4487   -1.3974 H         1 <0>         0.0741
     34 H3         -3.0193    1.2588    0.0863 H         1 <0>         0.0748
     35 H4         -0.4356   -0.2761   -2.0695 H         1 <0>         0.1458
     36 H5          0.1523   -2.6827   -1.9027 H         1 <0>         0.1721
     37 H6         -2.7639   -0.7114    1.4832 H         1 <0>         0.1673
     38 H7         -0.7824   -4.7795    0.8432 H         1 <0>         0.3983
     39 H8          0.4584   -6.7257   -3.0775 H         1 <0>         0.1990
     40 H9          1.3662   -8.8688   -3.9415 H         1 <0>         0.1692
     41 H10         1.8741  -11.2320   -3.6028 H         1 <0>         0.1648
     42 H11         0.4898  -10.9978    0.4389 H         1 <0>         0.1672
     43 H12        -1.8939   -7.8620    2.1238 H         1 <0>         0.1540
     44 H13        -0.4919   -8.8820    6.0210 H         1 <0>         0.1594
     45 H14         1.5935   -7.6428    5.6142 H         1 <0>         0.1627
     46 H15         3.4599   -7.3790    4.6939 H         1 <0>         0.0705
     47 H16         4.0295   -5.7812    4.1547 H         1 <0>         0.1173
     48 H17         2.7179   -5.9010    5.3520 H         1 <0>         0.0721
     49 H18         2.4112  -12.7295   -1.0652 H         1 <0>         0.4183
     50 H19         0.5245   -5.5480    1.4243 H         1 <0>         0.4556
@<TRIPOS>BOND
     1    1    2 1
     2    1   32 1
     3    1   33 1
     4    1   34 1
     5    2    7 ar
     6    2    3 ar
     7    3    4 ar
     8    3   35 1
     9    4    5 ar
    10    4   36 1
    11    5    6 ar
    12    5    8 1
    13    6    7 ar
    14    7   37 1
    15    8    9 am
    16    8   38 1
    17    9   10 2
    18    9   11 1
    19   11   20 1
    20   11   12 2
    21   12   13 1
    22   12   39 1
    23   13   18 ar
    24   13   14 ar
    25   14   15 ar
    26   14   40 1
    27   15   16 ar
    28   15   41 1
    29   16   17 ar
    30   16   31 1
    31   17   18 ar
    32   17   42 1
    33   18   19 1
    34   19   20 1
    35   20   21 2
    36   21   22 1
    37   21   50 1
    38   22   27 ar
    39   22   23 ar
    40   23   24 ar
    41   23   43 1
    42   24   25 ar
    43   24   30 1
    44   25   26 ar
    45   25   44 1
    46   26   27 ar
    47   26   45 1
    48   27   28 1
    49   28   29 1
    50   29   46 1
    51   29   47 1
    52   29   48 1
    53   31   49 1
@<TRIPOS>MOLECULE
ZINC00744665
   80    84     0     0     0
SMALL
USER_CHARGES
N-[[(1S,5R)-7,7-dimethyl-4-bicyclo[3.1.1]hept-3-enyl]methyl]-N-[2-[4-(4-methoxybenzoyl)piperazin-1-yl]ethyl]-2-phenyl-acetamide
@<TRIPOS>ATOM
      1 C1         10.4423   -1.4503   -0.8488 C.3       1 <0>        -0.1300
      2 C2         10.6847   -2.5233    0.2146 C.3       1 <0>        -0.0559
      3 C3         12.0321   -3.2512    0.0696 C.3       1 <0>        -0.1253
      4 H1         12.9722   -2.7126   -0.1205 H         1 <0>         0.0916
      5 C4         12.4017   -4.0730    1.3121 C.3       1 <0>        -0.0971
      6 C5         11.1883   -4.8239    1.8044 C.2       1 <0>        -0.1205
      7 C6         10.0648   -4.7571    1.1276 C.2       1 <0>        -0.1691
      8 C7         10.0519   -3.8955   -0.1231 C.3       1 <0>        -0.0448
      9 H2          9.0351   -4.0430   -0.5158 H         1 <0>         0.0830
     10 C8         11.3133   -4.1294   -0.9749 C.3       1 <0>        -0.1216
     11 C9          8.8343   -5.5016    1.5780 C.3       1 <0>         0.1479
     12 N1          7.9745   -4.6016    2.3507 N.am      1 <0>        -0.6060
     13 C10         6.9283   -3.8294    1.6760 C.3       1 <0>         0.0868
     14 C11         5.6297   -4.6382    1.6566 C.3       1 <0>        -0.0274
     15 N2          4.5805   -3.8639    0.9801 N.4       1 <0>        -0.3932
     16 C12         3.2666   -4.4989    1.1478 C.3       1 <0>        -0.0162
     17 C13         2.2350   -3.7670    0.2827 C.3       1 <0>         0.0885
     18 N3          2.2802   -2.3345    0.6133 N.am      1 <0>        -0.6305
     19 C14         3.5855   -1.6569    0.5947 C.3       1 <0>         0.0679
     20 C15         4.5646   -2.4733    1.4532 C.3       1 <0>        -0.0289
     21 C16         1.1546   -1.6595    0.9196 C.2       1 <0>         0.5781
     22 O1          0.0981   -2.2528    1.0198 O.2       1 <0>        -0.5075
     23 C17         1.2045   -0.1998    1.1335 C.ar      1 <0>        -0.1909
     24 C18         0.3453    0.4028    2.0560 C.ar      1 <0>        -0.0153
     25 C19         0.3953    1.7647    2.2529 C.ar      1 <0>        -0.1537
     26 C20         1.2988    2.5399    1.5355 C.ar      1 <0>         0.1679
     27 C21         2.1553    1.9442    0.6169 C.ar      1 <0>        -0.2158
     28 C22         2.1115    0.5829    0.4142 C.ar      1 <0>        -0.0599
     29 O2          1.3450    3.8818    1.7324 O.3       1 <0>        -0.3065
     30 C23         2.2971    4.6182    0.9621 C.3       1 <0>         0.0184
     31 C24         8.1462   -4.4840    3.6823 C.2       1 <0>         0.5256
     32 O3          7.4897   -3.6800    4.3097 O.2       1 <0>        -0.5153
     33 C25         9.1537   -5.3515    4.3917 C.3       1 <0>        -0.1062
     34 C26         9.0408   -5.1388    5.8793 C.ar      1 <0>        -0.0791
     35 C27         9.7992   -4.1622    6.4974 C.ar      1 <0>        -0.1019
     36 C28         9.6917   -3.9636    7.8612 C.ar      1 <0>        -0.1154
     37 C29         8.8343   -4.7491    8.6086 C.ar      1 <0>        -0.1125
     38 C30         8.0799   -5.7292    7.9913 C.ar      1 <0>        -0.1171
     39 C31         8.1831   -5.9241    6.6267 C.ar      1 <0>        -0.1088
     40 C32        10.3919   -2.0386    1.6360 C.3       1 <0>        -0.1415
     41 H3         10.9206   -0.5102   -0.5368 H         1 <0>         0.0617
     42 H4          9.3606   -1.2896   -0.9676 H         1 <0>         0.0548
     43 H5         10.8714   -1.7798   -1.8066 H         1 <0>         0.0632
     44 H6         13.1949   -4.7903    1.0546 H         1 <0>         0.0841
     45 H7         12.7598   -3.3991    2.1043 H         1 <0>         0.0801
     46 H8         11.2413   -5.4246    2.7244 H         1 <0>         0.1146
     47 H9         11.3967   -3.6616   -1.9670 H         1 <0>         0.0901
     48 H10        11.7788   -5.1257   -0.9990 H         1 <0>         0.0707
     49 H11         8.2849   -5.8680    0.6983 H         1 <0>         0.0911
     50 H12         9.1311   -6.3543    2.2063 H         1 <0>         0.0965
     51 H13         6.7640   -2.8850    2.2155 H         1 <0>         0.1086
     52 H14         7.2406   -3.6125    0.6438 H         1 <0>         0.1012
     53 H15         5.7940   -5.5826    1.1170 H         1 <0>         0.1355
     54 H16         5.3174   -4.8552    2.6888 H         1 <0>         0.1303
     55 H17         3.3262   -5.5524    0.8370 H         1 <0>         0.1453
     56 H18         2.9654   -4.4448    2.2044 H         1 <0>         0.1319
     57 H19         2.4769   -3.9146   -0.7802 H         1 <0>         0.0977
     58 H20         1.2320   -4.1684    0.4896 H         1 <0>         0.1388
     59 H21         3.9520   -1.5955   -0.4406 H         1 <0>         0.1005
     60 H22         3.4780   -0.6425    1.0063 H         1 <0>         0.1461
     61 H23         4.2427   -2.4474    2.5047 H         1 <0>         0.1358
     62 H24         5.5744   -2.0455    1.3682 H         1 <0>         0.1472
     63 H25        -0.3568   -0.1989    2.6140 H         1 <0>         0.1429
     64 H26        -0.2716    2.2318    2.9625 H         1 <0>         0.1452
     65 H27         2.8557    2.5499    0.0612 H         1 <0>         0.1402
     66 H28         2.7775    0.1208   -0.2994 H         1 <0>         0.1356
     67 H29         2.2289    5.6858    1.2182 H         1 <0>         0.1109
     68 H30         2.0849    4.4838   -0.1088 H         1 <0>         0.0626
     69 H31         3.3103    4.2519    1.1840 H         1 <0>         0.0613
     70 H32         8.9580   -6.4081    4.1565 H         1 <0>         0.1055
     71 H33        10.1673   -5.0835    4.0589 H         1 <0>         0.1108
     72 H34        10.4726   -3.5517    5.9141 H         1 <0>         0.1181
     73 H35        10.2809   -3.1976    8.3434 H         1 <0>         0.1250
     74 H36         8.7537   -4.5969    9.6748 H         1 <0>         0.1251
     75 H37         7.4100   -6.3430    8.5753 H         1 <0>         0.1242
     76 H38         7.5939   -6.6900    6.1445 H         1 <0>         0.1166
     77 H39        10.5853   -2.8540    2.3486 H         1 <0>         0.0660
     78 H40         9.3385   -1.7304    1.7086 H         1 <0>         0.0463
     79 H41        11.0414   -1.1830    1.8727 H         1 <0>         0.0556
     80 H42         4.8096   -3.8486   -0.0957 H         1 <0>         0.4405
@<TRIPOS>BOND
     1    1    2 1
     2    1   41 1
     3    1   42 1
     4    1   43 1
     5    2    8 1
     6    2    3 1
     7    2   40 1
     8    3    4 1
     9    3   10 1
    10    3    5 1
    11    5    6 1
    12    5   44 1
    13    5   45 1
    14    6    7 2
    15    6   46 1
    16    7    8 1
    17    7   11 1
    18    8    9 1
    19    8   10 1
    20   10   47 1
    21   10   48 1
    22   11   12 1
    23   11   49 1
    24   11   50 1
    25   12   13 1
    26   12   31 am
    27   13   14 1
    28   13   51 1
    29   13   52 1
    30   14   15 1
    31   14   53 1
    32   14   54 1
    33   15   20 1
    34   15   16 1
    35   15   80 1
    36   16   17 1
    37   16   55 1
    38   16   56 1
    39   17   18 1
    40   17   57 1
    41   17   58 1
    42   18   19 1
    43   18   21 am
    44   19   20 1
    45   19   59 1
    46   19   60 1
    47   20   61 1
    48   20   62 1
    49   21   22 2
    50   21   23 1
    51   23   28 ar
    52   23   24 ar
    53   24   25 ar
    54   24   63 1
    55   25   26 ar
    56   25   64 1
    57   26   27 ar
    58   26   29 1
    59   27   28 ar
    60   27   65 1
    61   28   66 1
    62   29   30 1
    63   30   67 1
    64   30   68 1
    65   30   69 1
    66   31   32 2
    67   31   33 1
    68   33   34 1
    69   33   70 1
    70   33   71 1
    71   34   39 ar
    72   34   35 ar
    73   35   36 ar
    74   35   72 1
    75   36   37 ar
    76   36   73 1
    77   37   38 ar
    78   37   74 1
    79   38   39 ar
    80   38   75 1
    81   39   76 1
    82   40   77 1
    83   40   78 1
    84   40   79 1
@<TRIPOS>MOLECULE
ZINC35742741
   68    73     0     0     0
SMALL
USER_CHARGES

@<TRIPOS>ATOM
      1 C1          0.0162    2.7014    0.6141 C.ar      1 <0>        -0.0838
      2 C2          1.2240    3.3331    0.3837 C.ar      1 <0>        -0.1110
      3 C3          2.4026    2.6131    0.4408 C.ar      1 <0>        -0.0952
      4 C4          2.3735    1.2613    0.7288 C.ar      1 <0>        -0.1584
      5 C5          1.1658    0.6298    0.9601 C.ar      1 <0>        -0.0945
      6 C6         -0.0129    1.3496    0.9016 C.ar      1 <0>        -0.1123
      7 C7          3.6583    0.4761    0.7901 C.3       1 <0>         0.0396
      8 N1          4.2672    0.6364    2.1173 N.4       1 <0>        -0.3854
      9 C8          3.4020    0.0182    3.1309 C.3       1 <0>         0.0447
     10 C9          3.9534    0.3041    4.5040 C.ar      1 <0>        -0.1545
     11 C10         4.7665   -0.6238    5.1277 C.ar      1 <0>        -0.0823
     12 C11         5.2751   -0.3659    6.3870 C.ar      1 <0>        -0.0988
     13 C12         4.9702    0.8242    7.0275 C.ar      1 <0>         0.0721
     14 C13         4.1510    1.7589    6.3992 C.ar      1 <0>         0.0418
     15 C14         3.6496    1.4961    5.1347 C.ar      1 <0>        -0.0805
     16 O1          4.0024    2.8346    7.2263 O.3       1 <0>        -0.3008
     17 C15         4.4029    2.3748    8.5307 C.3       1 <0>         0.2111
     18 O2          5.3349    1.3142    8.2482 O.3       1 <0>        -0.2981
     19 C16         5.5837   -0.0153    2.1340 C.3       1 <0>         0.0847
     20 C17         6.5092    0.6977    1.1820 C.2       1 <0>        -0.1039
     21 C18         7.3143    1.7296    1.4924 C.2       1 <0>        -0.1343
     22 C19         8.0000    2.0847    0.3080 C.2       1 <0>        -0.1886
     23 C20         7.5729    1.2485   -0.6552 C.2       1 <0>         0.0141
     24 O3          6.6743    0.4068   -0.1187 O.3       1 <0>        -0.1544
     25 C21         8.0295    1.2519   -2.0913 C.3       1 <0>         0.3072
     26 C22         7.9515   -0.1469   -2.6465 C.ar      1 <0>        -0.1251
     27 C23         9.1047   -0.7995   -3.0405 C.ar      1 <0>        -0.1028
     28 C24         9.0332   -2.0826   -3.5498 C.ar      1 <0>        -0.1135
     29 C25         7.8086   -2.7134   -3.6646 C.ar      1 <0>        -0.1073
     30 C26         6.6554   -2.0612   -3.2698 C.ar      1 <0>        -0.1190
     31 C27         6.7274   -0.7797   -2.7566 C.ar      1 <0>        -0.0972
     32 C28         7.1412    2.1630   -2.8987 C.ar      1 <0>        -0.0794
     33 C29         5.7763    2.1696   -2.6797 C.ar      1 <0>        -0.1103
     34 C30         4.9615    3.0053   -3.4203 C.ar      1 <0>        -0.1194
     35 C31         5.5116    3.8349   -4.3796 C.ar      1 <0>        -0.1066
     36 C32         6.8766    3.8290   -4.5979 C.ar      1 <0>        -0.1148
     37 C33         7.6919    2.9963   -3.8543 C.ar      1 <0>        -0.0812
     38 O4          9.3787    1.7176   -2.1611 O.3       1 <0>        -0.5221
     39 H1         -0.9042    3.2649    0.5739 H         1 <0>         0.1354
     40 H2          1.2468    4.3892    0.1587 H         1 <0>         0.1355
     41 H3          3.3462    3.1065    0.2601 H         1 <0>         0.1286
     42 H4          1.1430   -0.4263    1.1848 H         1 <0>         0.1326
     43 H5         -0.9565    0.8561    1.0819 H         1 <0>         0.1363
     44 H6          3.4485   -0.5785    0.6116 H         1 <0>         0.1394
     45 H7          4.3456    0.8439    0.0282 H         1 <0>         0.1340
     46 H8          2.3962    0.4303    3.0502 H         1 <0>         0.1439
     47 H9          3.3672   -1.0594    2.9705 H         1 <0>         0.1435
     48 H10         5.0047   -1.5524    4.6302 H         1 <0>         0.1490
     49 H11         5.9101   -1.0926    6.8719 H         1 <0>         0.1506
     50 H12         3.0177    2.2211    4.6432 H         1 <0>         0.1429
     51 H13         4.8910    3.1758    9.0859 H         1 <0>         0.1443
     52 H14         3.5440    1.9931    9.0826 H         1 <0>         0.0973
     53 H15         5.9968    0.0261    3.1418 H         1 <0>         0.1575
     54 H16         5.4780   -1.0558    1.8271 H         1 <0>         0.1469
     55 H17         7.4168    2.1976    2.4603 H         1 <0>         0.1618
     56 H18         8.7270    2.8758    0.1978 H         1 <0>         0.1656
     57 H19        10.0615   -0.3066   -2.9508 H         1 <0>         0.1295
     58 H20         9.9341   -2.5921   -3.8582 H         1 <0>         0.1294
     59 H21         7.7526   -3.7156   -4.0632 H         1 <0>         0.1274
     60 H22         5.6986   -2.5539   -3.3599 H         1 <0>         0.1252
     61 H23         5.8269   -0.2715   -2.4446 H         1 <0>         0.1193
     62 H24         5.3465    1.5215   -1.9303 H         1 <0>         0.1117
     63 H25         3.8951    3.0099   -3.2497 H         1 <0>         0.1245
     64 H26         4.8749    4.4873   -4.9586 H         1 <0>         0.1277
     65 H27         7.3064    4.4769   -5.3475 H         1 <0>         0.1303
     66 H28         8.7588    2.9944   -4.0223 H         1 <0>         0.1359
     67 H29        10.0074    1.1775   -1.6631 H         1 <0>         0.3901
     68 H30         4.3755    1.6186    2.3214 H         1 <0>         0.4238
@<TRIPOS>BOND
     1    1    6 ar
     2    1    2 ar
     3    1   39 1
     4    2    3 ar
     5    2   40 1
     6    3    4 ar
     7    3   41 1
     8    4    5 ar
     9    4    7 1
    10    5    6 ar
    11    5   42 1
    12    6   43 1
    13    7    8 1
    14    7   44 1
    15    7   45 1
    16    8    9 1
    17    8   19 1
    18    8   68 1
    19    9   10 1
    20    9   46 1
    21    9   47 1
    22   10   15 ar
    23   10   11 ar
    24   11   12 ar
    25   11   48 1
    26   12   13 ar
    27   12   49 1
    28   13   18 1
    29   13   14 ar
    30   14   15 ar
    31   14   16 1
    32   15   50 1
    33   16   17 1
    34   17   18 1
    35   17   51 1
    36   17   52 1
    37   19   20 1
    38   19   53 1
    39   19   54 1
    40   20   24 1
    41   20   21 2
    42   21   22 1
    43   21   55 1
    44   22   23 2
    45   22   56 1
    46   23   24 1
    47   23   25 1
    48   25   26 1
    49   25   32 1
    50   25   38 1
    51   26   31 ar
    52   26   27 ar
    53   27   28 ar
    54   27   57 1
    55   28   29 ar
    56   28   58 1
    57   29   30 ar
    58   29   59 1
    59   30   31 ar
    60   30   60 1
    61   31   61 1
    62   32   37 ar
    63   32   33 ar
    64   33   34 ar
    65   33   62 1
    66   34   35 ar
    67   34   63 1
    68   35   36 ar
    69   35   64 1
    70   36   37 ar
    71   36   65 1
    72   37   66 1
    73   38   67 1
@<TRIPOS>MOLECULE
ZINC38848145
   60    63     0     0     0
SMALL
USER_CHARGES

@<TRIPOS>ATOM
      1 C1          0.0140    1.5025    0.0081 C.3       1 <0>        -0.1146
      2 C2          0.0283   -0.0045    0.0004 C.ar      1 <0>        -0.0104
      3 C3         -0.0682   -0.6770   -1.1900 C.ar      1 <0>        -0.1011
      4 C4         -0.0593   -2.0640   -1.2420 C.ar      1 <0>        -0.0105
      5 C5          0.0498   -2.7852   -0.0656 C.ar      1 <0>        -0.0610
      6 C6          0.1473   -2.1195    1.1302 C.ar      1 <0>        -0.1338
      7 C7          0.1469   -0.7085    1.2206 C.ar      1 <0>         0.1005
      8 N1          0.2555   -0.2022    2.4684 N.2       1 <0>        -0.4930
      9 C8          0.3600   -0.9642    3.5323 C.2       1 <0>         0.3658
     10 S1          0.2997   -2.6075    2.8318 S.3       1 <0>         0.0056
     11 N2          0.4779   -0.5903    4.8595 N.am      1 <0>        -0.5090
     12 C9          0.6939   -1.6081    5.8908 C.3       1 <0>         0.1074
     13 C10         2.1957   -1.8267    6.0850 C.3       1 <0>        -0.1717
     14 C11         2.4213   -2.8896    7.1621 C.3       1 <0>         0.0947
     15 N3          3.8593   -3.0989    7.3480 N.pl3     1 <0>        -0.4081
     16 C12         4.6432   -3.9965    6.6745 C.2       1 <0>         0.0273
     17 C13         5.8943   -3.8571    7.1530 C.2       1 <0>         0.0053
     18 N4          5.8748   -2.9005    8.0930 N.pl3     1 <0>        -0.4751
     19 C14         4.6602   -2.4383    8.2116 C.cat     1 <0>         0.2877
     20 C15         0.3939    0.7102    5.2032 C.2       1 <0>         0.5459
     21 O1          0.1202    1.5457    4.3614 O.2       1 <0>        -0.4598
     22 C16         0.6315    1.1173    6.5868 C.2       1 <0>        -0.2411
     23 C17         0.6468    2.4278    6.9119 C.2       1 <0>         0.0245
     24 C18         0.9953    2.8420    8.2784 C.ar      1 <0>        -0.0891
     25 C19         1.4204    1.8910    9.2132 C.ar      1 <0>        -0.0925
     26 C20         1.7468    2.2819   10.4930 C.ar      1 <0>        -0.1831
     27 C21         1.6554    3.6183   10.8593 C.ar      1 <0>         0.1250
     28 C22         1.2327    4.5718    9.9338 C.ar      1 <0>         0.1031
     29 C23         0.9086    4.1895    8.6470 C.ar      1 <0>        -0.1414
     30 O2          1.1443    5.8793   10.2971 O.3       1 <0>        -0.3021
     31 C24         0.7043    6.8018    9.2984 C.3       1 <0>         0.0220
     32 O3          1.9782    3.9976   12.1229 O.3       1 <0>        -0.2987
     33 C25         2.4031    2.9699   13.0202 C.3       1 <0>         0.0242
     34 Cl1        -0.1844   -2.8856   -2.7662 Cl        1 <0>        -0.0405
     35 H1          1.0382    1.8755    0.0060 H         1 <0>         0.0783
     36 H2         -0.5067    1.8654   -0.8780 H         1 <0>         0.0737
     37 H3         -0.4998    1.8564    0.9019 H         1 <0>         0.0820
     38 H4         -0.1533   -0.1149   -2.1083 H         1 <0>         0.1488
     39 H5          0.0578   -3.8649   -0.0888 H         1 <0>         0.1457
     40 H6          0.2510   -1.2742    6.8292 H         1 <0>         0.1159
     41 H7          0.2276   -2.5435    5.5815 H         1 <0>         0.1015
     42 H8          2.6386   -2.1606    5.1466 H         1 <0>         0.0931
     43 H9          2.6620   -0.8913    6.3943 H         1 <0>         0.0939
     44 H10         1.9785   -2.5557    8.1004 H         1 <0>         0.1283
     45 H11         1.9550   -3.8250    6.8528 H         1 <0>         0.1314
     46 H12         4.3203   -4.6846    5.9072 H         1 <0>         0.2240
     47 H13         6.7613   -4.4174    6.8355 H         1 <0>         0.2245
     48 H14         4.3469   -1.6585    8.8899 H         1 <0>         0.2597
     49 H15         0.7949    0.3699    7.3491 H         1 <0>         0.1335
     50 H16         0.4030    3.1716    6.1678 H         1 <0>         0.1402
     51 H17         1.4921    0.8509    8.9312 H         1 <0>         0.1272
     52 H18         2.0744    1.5472   11.2136 H         1 <0>         0.1400
     53 H19         0.5850    4.9277    7.9282 H         1 <0>         0.1450
     54 H20         0.6786    7.8073    9.7186 H         1 <0>         0.1076
     55 H21         1.3927    6.7785    8.4537 H         1 <0>         0.0583
     56 H22        -0.2942    6.5234    8.9612 H         1 <0>         0.0590
     57 H23         1.6085    2.2319   13.1300 H         1 <0>         0.0582
     58 H24         3.2955    2.4864   12.6226 H         1 <0>         0.0555
     59 H25         2.6296    3.4073   13.9926 H         1 <0>         0.1066
     60 H26         6.6431   -2.5974    8.6017 H         1 <0>         0.4659
@<TRIPOS>BOND
     1    1    2 1
     2    1   35 1
     3    1   36 1
     4    1   37 1
     5    2    7 ar
     6    2    3 ar
     7    3    4 ar
     8    3   38 1
     9    4    5 ar
    10    4   34 1
    11    5    6 ar
    12    5   39 1
    13    6   10 1
    14    6    7 ar
    15    7    8 1
    16    8    9 2
    17    9   10 1
    18    9   11 1
    19   11   12 1
    20   11   20 am
    21   12   13 1
    22   12   40 1
    23   12   41 1
    24   13   14 1
    25   13   42 1
    26   13   43 1
    27   14   15 1
    28   14   44 1
    29   14   45 1
    30   15   19 1
    31   15   16 1
    32   16   17 2
    33   16   46 1
    34   17   18 1
    35   17   47 1
    36   18   19 2
    37   18   60 1
    38   19   48 1
    39   20   21 2
    40   20   22 1
    41   22   23 2
    42   22   49 1
    43   23   24 1
    44   23   50 1
    45   24   29 ar
    46   24   25 ar
    47   25   26 ar
    48   25   51 1
    49   26   27 ar
    50   26   52 1
    51   27   28 ar
    52   27   32 1
    53   28   29 ar
    54   28   30 1
    55   29   53 1
    56   30   31 1
    57   31   54 1
    58   31   55 1
    59   31   56 1
    60   32   33 1
    61   33   57 1
    62   33   58 1
    63   33   59 1
@<TRIPOS>MOLECULE
ZINC40008624
   56    59     0     0     0
SMALL
USER_CHARGES

@<TRIPOS>ATOM
      1 C1          1.5622    1.5860    1.7477 C.3       1 <0>        -0.1883
      2 C2          1.8807    0.1124    1.4873 C.3       1 <0>        -0.0179
      3 N1          0.6281   -0.6399    1.3354 N.4       1 <0>        -0.3852
      4 C3         -0.0786   -0.1768    0.1338 C.3       1 <0>        -0.0156
      5 C4         -1.4531   -0.8449    0.0612 C.3       1 <0>        -0.1897
      6 C5          0.9296   -2.0717    1.2050 C.3       1 <0>        -0.0108
      7 C6          1.5497   -2.5830    2.5069 C.3       1 <0>        -0.1870
      8 C7          1.7456   -4.0978    2.4180 C.3       1 <0>         0.1482
      9 N2          2.3394   -4.5874    3.6646 N.am      1 <0>        -0.5978
     10 C8          3.7789   -4.7036    3.9497 C.3       1 <0>         0.2305
     11 H1          4.2484   -5.3874    3.2425 H         1 <0>         0.1287
     12 C9          3.8767   -5.2494    5.3364 C.2       1 <0>        -0.2457
     13 C10         5.0408   -5.5876    6.1620 C.2       1 <0>         0.4560
     14 O1          6.1829   -5.2916    5.8580 O.2       1 <0>        -0.4203
     15 C11         4.6949   -6.3242    7.4039 C.ar      1 <0>        -0.2083
     16 C12         5.6975   -6.8891    8.1919 C.ar      1 <0>        -0.0009
     17 C13         5.3578   -7.5736    9.3383 C.ar      1 <0>        -0.1168
     18 C14         4.0238   -7.6992    9.7042 C.ar      1 <0>        -0.0239
     19 C15         3.0266   -7.1439    8.9352 C.ar      1 <0>        -0.1242
     20 C16         3.3447   -6.4443    7.7713 C.ar      1 <0>         0.1523
     21 O2          2.3456   -5.9005    7.0391 O.3       1 <0>        -0.1769
     22 C17         2.6059   -5.4247    5.8056 C.2       1 <0>         0.0912
     23 C18         1.6630   -5.0051    4.7540 C.2       1 <0>         0.5755
     24 O3          0.4524   -5.0336    4.8530 O.2       1 <0>        -0.4750
     25 Br1         6.7090   -8.3434   10.4143 Br        1 <0>        -0.0164
     26 C19         4.4346   -3.3488    3.8752 C.ar      1 <0>        -0.0877
     27 C20         3.7892   -2.2393    4.3893 C.ar      1 <0>        -0.1076
     28 C21         4.3900   -0.9964    4.3213 C.ar      1 <0>        -0.1168
     29 C22         5.6364   -0.8617    3.7389 C.ar      1 <0>        -0.0975
     30 C23         6.2826   -1.9713    3.2244 C.ar      1 <0>        -0.0300
     31 C24         5.6833   -3.2164    3.2983 C.ar      1 <0>        -0.0735
     32 Cl1         7.8480   -1.8031    2.4929 Cl        1 <0>        -0.0484
     33 H2          0.9723    1.6745    2.6600 H         1 <0>         0.0805
     34 H3          2.4916    2.1442    1.8604 H         1 <0>         0.1070
     35 H4          0.9957    1.9891    0.9082 H         1 <0>         0.0814
     36 H5          2.4706    0.0239    0.5750 H         1 <0>         0.1307
     37 H6          2.4472   -0.2908    2.3268 H         1 <0>         0.1293
     38 H7         -0.2024    0.9051    0.1794 H         1 <0>         0.1336
     39 H8          0.5001   -0.4393   -0.7519 H         1 <0>         0.1300
     40 H9         -1.9559   -0.5429   -0.8576 H         1 <0>         0.1070
     41 H10        -1.3316   -1.9281    0.0698 H         1 <0>         0.0803
     42 H11        -2.0512   -0.5396    0.9199 H         1 <0>         0.0811
     43 H12         0.0096   -2.6196    1.0010 H         1 <0>         0.1371
     44 H13         1.6314   -2.2220    0.3847 H         1 <0>         0.1345
     45 H14         2.5144   -2.1005    2.6638 H         1 <0>         0.1036
     46 H15         0.8873   -2.3506    3.3407 H         1 <0>         0.0947
     47 H16         0.7809   -4.5803    2.2610 H         1 <0>         0.1053
     48 H17         2.4081   -4.3302    1.5842 H         1 <0>         0.1043
     49 H18         6.7340   -6.7909    7.9049 H         1 <0>         0.1577
     50 H19         3.7660   -8.2389   10.6034 H         1 <0>         0.1577
     51 H20         1.9942   -7.2509    9.2337 H         1 <0>         0.1596
     52 H21         2.8151   -2.3439    4.8437 H         1 <0>         0.1235
     53 H22         3.8853   -0.1301    4.7230 H         1 <0>         0.1359
     54 H23         6.1054    0.1096    3.6852 H         1 <0>         0.1398
     55 H24         6.1893   -4.0838    2.9008 H         1 <0>         0.1422
     56 H25         0.0461   -0.4913    2.1462 H         1 <0>         0.4228
@<TRIPOS>BOND
     1    1    2 1
     2    1   33 1
     3    1   34 1
     4    1   35 1
     5    2    3 1
     6    2   36 1
     7    2   37 1
     8    3    4 1
     9    3    6 1
    10    3   56 1
    11    4    5 1
    12    4   38 1
    13    4   39 1
    14    5   40 1
    15    5   41 1
    16    5   42 1
    17    6    7 1
    18    6   43 1
    19    6   44 1
    20    7    8 1
    21    7   45 1
    22    7   46 1
    23    8    9 1
    24    8   47 1
    25    8   48 1
    26    9   23 am
    27    9   10 1
    28   10   11 1
    29   10   12 1
    30   10   26 1
    31   12   22 2
    32   12   13 1
    33   13   14 2
    34   13   15 1
    35   15   20 ar
    36   15   16 ar
    37   16   17 ar
    38   16   49 1
    39   17   18 ar
    40   17   25 1
    41   18   19 ar
    42   18   50 1
    43   19   20 ar
    44   19   51 1
    45   20   21 1
    46   21   22 1
    47   22   23 1
    48   23   24 2
    49   26   31 ar
    50   26   27 ar
    51   27   28 ar
    52   27   52 1
    53   28   29 ar
    54   28   53 1
    55   29   30 ar
    56   29   54 1
    57   30   31 ar
    58   30   32 1
    59   31   55 1
@<TRIPOS>MOLECULE
ZINC63491760
   72    76     0     0     0
SMALL
USER_CHARGES

@<TRIPOS>ATOM
      1 C1         -0.0450   -5.0743    3.0560 C.3       1 <0>        -0.1538
      2 C2         -0.0196   -4.0905    1.8845 C.3       1 <0>         0.0530
      3 O1          0.6596   -4.6858    0.7771 O.3       1 <0>        -0.3134
      4 C3          0.7706   -3.9386   -0.3526 C.ar      1 <0>         0.1427
      5 C4          0.2418   -2.6564   -0.3925 C.ar      1 <0>        -0.1925
      6 C5          0.3564   -1.8988   -1.5417 C.ar      1 <0>        -0.0663
      7 C6          0.9975   -2.4172   -2.6520 C.ar      1 <0>        -0.1341
      8 C7          1.5248   -3.6946   -2.6149 C.ar      1 <0>        -0.0888
      9 C8          1.4178   -4.4543   -1.4658 C.ar      1 <0>        -0.1658
     10 C9          2.2223   -4.2566   -3.8268 C.3       1 <0>         0.1980
     11 H1          2.1826   -3.5351   -4.6428 H         1 <0>         0.1425
     12 C10         3.6824   -4.5729   -3.4847 C.3       1 <0>         0.0803
     13 H2          4.2482   -4.7953   -4.3894 H         1 <0>         0.1778
     14 C11         3.6595   -5.7797   -2.5552 C.2       1 <0>         0.0668
     15 C12         4.3092   -5.4180   -1.4551 C.ar      1 <0>        -0.1608
     16 C13         4.6711   -6.1667   -0.2408 C.ar      1 <0>         0.0035
     17 C14         5.3409   -5.4703    0.7153 C.ar      1 <0>        -0.1590
     18 C15         5.6823   -4.1205    0.5865 C.ar      1 <0>         0.0528
     19 C16         5.3932   -3.3560   -0.4967 C.ar      1 <0>        -0.2051
     20 C17         4.6946   -3.9786   -1.5717 C.ar      1 <0>         0.3382
     21 N1          4.3144   -3.4846   -2.7368 N.pl3     1 <0>        -0.5779
     22 C18         2.9328   -7.0560   -2.9019 C.3       1 <0>        -0.1061
     23 C19         1.5069   -6.6538   -3.3207 C.3       1 <0>         0.0887
     24 N2          1.5723   -5.5105   -4.2387 N.am      1 <0>        -0.6137
     25 C20         1.0333   -5.6097   -5.4700 C.2       1 <0>         0.5299
     26 O2          1.0856   -4.6680   -6.2325 O.2       1 <0>        -0.4965
     27 C21         0.3658   -6.8908   -5.8993 C.3       1 <0>        -0.0933
     28 C22        -0.1495   -6.7412   -7.3076 C.ar      1 <0>        -0.0620
     29 C23        -1.4617   -6.3644   -7.5274 C.ar      1 <0>        -0.1313
     30 C24        -1.9374   -6.2264   -8.8177 C.ar      1 <0>        -0.0782
     31 C25        -1.1034   -6.4650   -9.8946 C.ar      1 <0>        -0.1923
     32 C26         0.2121   -6.8428   -9.6814 C.ar      1 <0>         0.1180
     33 C27         0.6930   -6.9758   -8.3819 C.ar      1 <0>         0.0807
     34 O3          1.9853   -7.3411   -8.1675 O.3       1 <0>        -0.3221
     35 C28         2.2560   -8.7407   -8.0688 C.3       1 <0>         0.0571
     36 C29         3.7518   -8.9552   -7.8290 C.3       1 <0>        -0.1487
     37 O4          1.0336   -7.0779  -10.7394 O.3       1 <0>        -0.3051
     38 C30         0.4736   -6.9161  -12.0441 C.3       1 <0>         0.0513
     39 C31         1.5397   -7.2214  -13.0982 C.3       1 <0>        -0.1525
     40 H3         -0.5665   -5.9832    2.7559 H         1 <0>         0.0693
     41 H4          0.9765   -5.3204    3.3459 H         1 <0>         0.0671
     42 H5         -0.5630   -4.6202    3.9007 H         1 <0>         0.0846
     43 H6         -1.0411   -3.8443    1.5946 H         1 <0>         0.0668
     44 H7          0.5019   -3.1816    2.1846 H         1 <0>         0.0647
     45 H8         -0.2593   -2.2512    0.4742 H         1 <0>         0.1362
     46 H9         -0.0553   -0.9009   -1.5734 H         1 <0>         0.1361
     47 H10         1.0860   -1.8232   -3.5496 H         1 <0>         0.1317
     48 H11         1.8338   -5.4505   -1.4359 H         1 <0>         0.1347
     49 H12         4.4193   -7.2096   -0.1167 H         1 <0>         0.1690
     50 H13         5.6237   -5.9860    1.6211 H         1 <0>         0.1537
     51 H14         6.2116   -3.6547    1.4046 H         1 <0>         0.1558
     52 H15         5.6813   -2.3162   -0.5424 H         1 <0>         0.1665
     53 H16         3.4360   -7.5591   -3.7277 H         1 <0>         0.1303
     54 H17         2.8950   -7.7116   -2.0320 H         1 <0>         0.1256
     55 H18         1.0241   -7.4937   -3.8204 H         1 <0>         0.1204
     56 H19         0.9325   -6.3775   -2.4364 H         1 <0>         0.1007
     57 H20         1.0872   -7.7070   -5.8611 H         1 <0>         0.1093
     58 H21        -0.4659   -7.1093   -5.2295 H         1 <0>         0.1121
     59 H22        -2.1163   -6.1778   -6.6889 H         1 <0>         0.1280
     60 H23        -2.9629   -5.9318   -8.9852 H         1 <0>         0.1325
     61 H24        -1.4778   -6.3571  -10.9019 H         1 <0>         0.1352
     62 H25         1.6907   -9.1624   -7.2377 H         1 <0>         0.0489
     63 H26         1.9621   -9.2339   -8.9953 H         1 <0>         0.0573
     64 H27         4.3171   -8.5335   -8.6601 H         1 <0>         0.0675
     65 H28         4.0456   -8.4620   -6.9024 H         1 <0>         0.0569
     66 H29         3.9583  -10.0228   -7.7537 H         1 <0>         0.0770
     67 H30        -0.3653   -7.6011  -12.1668 H         1 <0>         0.0637
     68 H31         0.1258   -5.8903  -12.1656 H         1 <0>         0.0640
     69 H32         1.1125   -7.0981  -14.0933 H         1 <0>         0.0817
     70 H33         2.3787   -6.5364  -12.9754 H         1 <0>         0.0672
     71 H34         1.8875   -8.2473  -12.9767 H         1 <0>         0.0666
     72 H35         4.4240   -2.5721   -3.0469 H         1 <0>         0.4571
@<TRIPOS>BOND
     1    1    2 1
     2    1   40 1
     3    1   41 1
     4    1   42 1
     5    2    3 1
     6    2   43 1
     7    2   44 1
     8    3    4 1
     9    4    9 ar
    10    4    5 ar
    11    5    6 ar
    12    5   45 1
    13    6    7 ar
    14    6   46 1
    15    7    8 ar
    16    7   47 1
    17    8    9 ar
    18    8   10 1
    19    9   48 1
    20   10   11 1
    21   10   24 1
    22   10   12 1
    23   12   13 1
    24   12   21 1
    25   12   14 1
    26   14   15 2
    27   14   22 1
    28   15   20 ar
    29   15   16 ar
    30   16   17 ar
    31   16   49 1
    32   17   18 ar
    33   17   50 1
    34   18   19 ar
    35   18   51 1
    36   19   20 ar
    37   19   52 1
    38   20   21 2
    39   21   72 1
    40   22   23 1
    41   22   53 1
    42   22   54 1
    43   23   24 1
    44   23   55 1
    45   23   56 1
    46   24   25 am
    47   25   26 2
    48   25   27 1
    49   27   28 1
    50   27   57 1
    51   27   58 1
    52   28   33 ar
    53   28   29 ar
    54   29   30 ar
    55   29   59 1
    56   30   31 ar
    57   30   60 1
    58   31   32 ar
    59   31   61 1
    60   32   33 ar
    61   32   37 1
    62   33   34 1
    63   34   35 1
    64   35   36 1
    65   35   62 1
    66   35   63 1
    67   36   64 1
    68   36   65 1
    69   36   66 1
    70   37   38 1
    71   38   39 1
    72   38   67 1
    73   38   68 1
    74   39   69 1
    75   39   70 1
    76   39   71 1
@<TRIPOS>MOLECULE
ZINC15946022
   79    82     0     0     0
SMALL
USER_CHARGES
(6S)-6-tert-butyl-N-(2,4-dimethoxyphenyl)-2-[[2-(4-methyl-1-piperidyl)acetyl]amino]-4,5,6,7-tetrahydrobenzothiophene-3-carboxamide
@<TRIPOS>ATOM
      1 C1         -7.0315    4.1850   -9.4815 C.3       1 <0>        -0.1541
      2 C2         -6.1834    3.3260   -8.5415 C.3       1 <0>        -0.1051
      3 C3         -6.8116    3.3224   -7.1451 C.3       1 <0>        -0.1399
      4 C4         -5.9268    2.5121   -6.1950 C.3       1 <0>        -0.0119
      5 C5         -3.9434    3.0788   -7.4667 C.3       1 <0>        -0.0015
      6 C6         -4.7690    3.9060   -8.4547 C.3       1 <0>        -0.1436
      7 C7         -3.7492    2.4393   -5.1400 C.3       1 <0>        -0.0197
      8 C8         -4.2913    2.7290   -3.7640 C.2       1 <0>         0.4941
      9 O1         -5.3181    3.3619   -3.6376 O.2       1 <0>        -0.4932
     10 N1         -3.6350    2.2847   -2.6739 N.am      1 <0>        -0.5933
     11 C9         -4.1339    2.5513   -1.4077 C.2       1 <0>         0.0300
     12 C10        -3.6069    2.1825   -0.1781 C.2       1 <0>        -0.1833
     13 C11        -4.3285    2.5963    1.0132 C.2       1 <0>        -0.0704
     14 C12        -5.4566    3.3036    0.7857 C.2       1 <0>        -0.1769
     15 S1         -5.5680    3.4231   -0.9771 S.3       1 <0>         0.2341
     16 C13        -6.3966    3.8589    1.8108 C.3       1 <0>        -0.0410
     17 C14        -5.6953    3.8295    3.1765 C.3       1 <0>        -0.0686
     18 H1         -4.9177    4.5928    3.2068 H         1 <0>         0.0782
     19 C15        -5.0663    2.4479    3.3786 C.3       1 <0>        -0.1199
     20 C16        -3.8769    2.2743    2.4324 C.3       1 <0>        -0.0631
     21 C17        -6.7174    4.0945    4.2837 C.3       1 <0>        -0.0623
     22 C18        -6.0192    4.0476    5.6443 C.3       1 <0>        -0.1466
     23 C19        -7.3441    5.4753    4.0795 C.3       1 <0>        -0.1461
     24 C20        -7.8111    3.0257    4.2346 C.3       1 <0>        -0.1496
     25 C21        -2.3648    1.4092   -0.0843 C.2       1 <0>         0.5719
     26 O2         -2.4047    0.1926   -0.0709 O.2       1 <0>        -0.5090
     27 N2         -1.1787    2.0453   -0.0131 N.am      1 <0>        -0.6480
     28 C22         0.0149    1.3088   -0.0395 C.ar      1 <0>         0.0717
     29 C23         0.0427    0.0527   -0.6271 C.ar      1 <0>        -0.0565
     30 C24         1.2197   -0.6706   -0.6578 C.ar      1 <0>        -0.2242
     31 C25         2.3758   -0.1423   -0.1022 C.ar      1 <0>         0.1590
     32 C26         2.3533    1.1135    0.4857 C.ar      1 <0>        -0.2229
     33 C27         1.1748    1.8405    0.5193 C.ar      1 <0>         0.1456
     34 O3          1.1504    3.0719    1.0956 O.3       1 <0>        -0.3159
     35 C28         2.3769    3.5538    1.6484 C.3       1 <0>         0.0256
     36 O4          3.5325   -0.8564   -0.1344 O.3       1 <0>        -0.3136
     37 C29         3.4840   -2.1423   -0.7558 C.3       1 <0>         0.0257
     38 H2         -7.0755    5.2054   -9.1007 H         1 <0>         0.0624
     39 H3         -6.5836    4.1870  -10.4752 H         1 <0>         0.0672
     40 H4         -8.0397    3.7746   -9.5382 H         1 <0>         0.0678
     41 H5         -6.1370    2.3059   -8.9226 H         1 <0>         0.0886
     42 H6         -7.8027    2.8712   -7.1930 H         1 <0>         0.1130
     43 H7         -6.8945    4.3464   -6.7807 H         1 <0>         0.0900
     44 H8         -5.8555    1.4849   -6.5525 H         1 <0>         0.1288
     45 H9         -6.3640    2.5197   -5.1966 H         1 <0>         0.1423
     46 H10        -2.9399    3.4978   -7.3919 H         1 <0>         0.1310
     47 H11        -3.8814    2.0489   -7.8182 H         1 <0>         0.1340
     48 H12        -4.3007    3.8718   -9.4384 H         1 <0>         0.1151
     49 H13        -4.8198    4.9393   -8.1117 H         1 <0>         0.0897
     50 H14        -2.7267    2.8099   -5.2131 H         1 <0>         0.1644
     51 H15        -3.7592    1.3636   -5.3154 H         1 <0>         0.1683
     52 H16        -2.8138    1.7785   -2.7749 H         1 <0>         0.4262
     53 H17        -7.2999    3.2501    1.8487 H         1 <0>         0.0934
     54 H18        -6.6565    4.8858    1.5535 H         1 <0>         0.0860
     55 H19        -5.8094    1.6779    3.1711 H         1 <0>         0.0707
     56 H20        -4.7258    2.3523    4.4096 H         1 <0>         0.0800
     57 H21        -3.5209    1.2451    2.4779 H         1 <0>         0.0783
     58 H22        -3.0759    2.9536    2.7240 H         1 <0>         0.0808
     59 H23        -5.2400    4.8090    5.6793 H         1 <0>         0.0558
     60 H24        -6.7473    4.2364    6.4331 H         1 <0>         0.0580
     61 H25        -5.5727    3.0639    5.7898 H         1 <0>         0.0596
     62 H26        -7.8415    5.5087    3.1102 H         1 <0>         0.0558
     63 H27        -8.0722    5.6641    4.8682 H         1 <0>         0.0581
     64 H28        -6.5649    6.2367    4.1144 H         1 <0>         0.0559
     65 H29        -7.3647    2.0421    4.3802 H         1 <0>         0.0589
     66 H30        -8.5393    3.2145    5.0234 H         1 <0>         0.0576
     67 H31        -8.3085    3.0592    3.2653 H         1 <0>         0.0569
     68 H32        -1.1504    3.0124    0.0565 H         1 <0>         0.4159
     69 H33        -0.8561   -0.3604   -1.0606 H         1 <0>         0.1526
     70 H34         1.2397   -1.6487   -1.1154 H         1 <0>         0.1355
     71 H35         3.2538    1.5240    0.9180 H         1 <0>         0.1440
     72 H36         2.7166    2.8721    2.4281 H         1 <0>         0.0616
     73 H37         3.1309    3.6126    0.8634 H         1 <0>         0.0603
     74 H38         2.2187    4.5442    2.0752 H         1 <0>         0.1054
     75 H39         3.1790   -2.0317   -1.7964 H         1 <0>         0.0573
     76 H40         4.4706   -2.6038   -0.7134 H         1 <0>         0.1048
     77 H41         2.7654   -2.7723   -0.2315 H         1 <0>         0.0593
     78 N3         -4.5876    3.1359   -6.1374 N.4       1 <0>        -0.3811
     79 H42        -4.6897    4.1189   -5.8588 H         1 <0>         0.4344
@<TRIPOS>BOND
     1    1    2 1
     2    1   38 1
     3    1   39 1
     4    1   40 1
     5    2    6 1
     6    2    3 1
     7    2   41 1
     8    3    4 1
     9    3   42 1
    10    3   43 1
    11    4   44 1
    12    4   45 1
    13    4   78 1
    14    5    6 1
    15    5   46 1
    16    5   47 1
    17    5   78 1
    18    6   48 1
    19    6   49 1
    20    7    8 1
    21    7   50 1
    22    7   51 1
    23    7   78 1
    24    8    9 2
    25    8   10 am
    26   10   11 1
    27   10   52 1
    28   11   15 1
    29   11   12 2
    30   12   13 1
    31   12   25 1
    32   13   20 1
    33   13   14 2
    34   14   15 1
    35   14   16 1
    36   16   17 1
    37   16   53 1
    38   16   54 1
    39   17   18 1
    40   17   19 1
    41   17   21 1
    42   19   20 1
    43   19   55 1
    44   19   56 1
    45   20   57 1
    46   20   58 1
    47   21   22 1
    48   21   23 1
    49   21   24 1
    50   22   59 1
    51   22   60 1
    52   22   61 1
    53   23   62 1
    54   23   63 1
    55   23   64 1
    56   24   65 1
    57   24   66 1
    58   24   67 1
    59   25   26 2
    60   25   27 am
    61   27   28 1
    62   27   68 1
    63   28   33 ar
    64   28   29 ar
    65   29   30 ar
    66   29   69 1
    67   30   31 ar
    68   30   70 1
    69   31   32 ar
    70   31   36 1
    71   32   33 ar
    72   32   71 1
    73   33   34 1
    74   34   35 1
    75   35   72 1
    76   35   73 1
    77   35   74 1
    78   36   37 1
    79   37   75 1
    80   37   76 1
    81   37   77 1
    82   78   79 1
@<TRIPOS>MOLECULE
ZINC35091966
   75    79     0     0     0
SMALL
USER_CHARGES

@<TRIPOS>ATOM
      1 C1          4.0149    1.8267   -1.3585 C.3       1 <0>        -0.1561
      2 C2          3.3275    0.4621   -1.2793 C.3       1 <0>         0.0504
      3 O1          4.1200   -0.5109   -1.9628 O.3       1 <0>        -0.3056
      4 C3          3.6476   -1.7854   -1.9866 C.ar      1 <0>         0.1650
      5 C4          2.4430   -2.0901   -1.3693 C.ar      1 <0>        -0.1929
      6 C5          1.9627   -3.3842   -1.3932 C.ar      1 <0>        -0.0430
      7 C6          2.6853   -4.3809   -2.0355 C.ar      1 <0>         0.0301
      8 C7          3.8906   -4.0753   -2.6535 C.ar      1 <0>        -0.0780
      9 C8          4.3675   -2.7798   -2.6332 C.ar      1 <0>        -0.1382
     10 N1          2.1984   -5.6952   -2.0597 N.am      1 <0>        -0.4797
     11 C9          2.2232   -6.4405   -0.9302 C.2       1 <0>         0.5486
     12 O2          2.6613   -5.9925    0.1135 O.2       1 <0>        -0.4680
     13 C10         1.7001   -7.8118   -1.0126 C.ar      1 <0>        -0.1757
     14 C11         1.6802   -8.6605    0.0926 C.ar      1 <0>        -0.0416
     15 C12         1.1783   -9.9364   -0.0403 C.ar      1 <0>        -0.1111
     16 C13         0.6938  -10.3810   -1.2638 C.ar      1 <0>        -0.0688
     17 C14         0.7044   -9.5586   -2.3677 C.ar      1 <0>        -0.0951
     18 C15         1.2081   -8.2607   -2.2584 C.ar      1 <0>         0.1304
     19 N2          1.2371   -7.4171   -3.3201 N.2       1 <0>        -0.5105
     20 C16         1.7001   -6.2083   -3.2167 C.2       1 <0>         0.3586
     21 C17         1.6908   -5.3315   -4.4423 C.3       1 <0>         0.0803
     22 H1          2.4856   -4.5897   -4.3644 H         1 <0>         0.1612
     23 C18         0.3397   -4.6219   -4.5515 C.3       1 <0>        -0.1795
     24 N3          1.9078   -6.1580   -5.6373 N.4       1 <0>        -0.3715
     25 C19         3.2154   -6.8191   -5.5421 C.3       1 <0>        -0.0236
     26 C20         3.3939   -7.7694   -6.7307 C.3       1 <0>         0.0906
     27 N4          3.1878   -7.0073   -7.9720 N.am      1 <0>        -0.6404
     28 C21         1.9749   -6.1826   -8.0859 C.3       1 <0>         0.1496
     29 H2          1.0993   -6.8274   -8.1613 H         1 <0>         0.1019
     30 C22         1.8634   -5.3072   -6.8332 C.3       1 <0>        -0.0298
     31 C23         2.0701   -5.2973   -9.3301 C.3       1 <0>        -0.1436
     32 C24         4.0849   -7.0627   -8.9763 C.2       1 <0>         0.7122
     33 O3          3.9479   -6.3527   -9.9537 O.2       1 <0>        -0.5367
     34 N5          5.1339   -7.9053   -8.8971 N.am      1 <0>        -0.6736
     35 C25         6.1386   -7.8652   -9.8705 C.ar      1 <0>         0.1510
     36 C26         6.2549   -6.7615  -10.7054 C.ar      1 <0>        -0.1378
     37 C27         7.2477   -6.7248  -11.6646 C.ar      1 <0>        -0.1012
     38 C28         8.1253   -7.7857  -11.7946 C.ar      1 <0>        -0.1293
     39 C29         8.0118   -8.8861  -10.9652 C.ar      1 <0>        -0.0959
     40 C30         7.0247   -8.9262   -9.9997 C.ar      1 <0>        -0.1194
     41 C31         6.9057  -10.1233   -9.0920 C.3       1 <0>        -0.1114
     42 H3          4.9980    1.7660   -0.8917 H         1 <0>         0.0704
     43 H4          4.1260    2.1174   -2.4031 H         1 <0>         0.0695
     44 H5          3.4103    2.5689   -0.8372 H         1 <0>         0.0854
     45 H6          3.2164    0.1714   -0.2347 H         1 <0>         0.0691
     46 H7          2.3444    0.5228   -1.7461 H         1 <0>         0.0682
     47 H8          1.8811   -1.3148   -0.8697 H         1 <0>         0.1451
     48 H9          1.0254   -3.6214   -0.9120 H         1 <0>         0.1341
     49 H10         4.4532   -4.8501   -3.1530 H         1 <0>         0.1327
     50 H11         5.3029   -2.5411   -3.1173 H         1 <0>         0.1479
     51 H12         2.0559   -8.3204    1.0464 H         1 <0>         0.1460
     52 H13         1.1617  -10.5969    0.8140 H         1 <0>         0.1445
     53 H14         0.3042  -11.3845   -1.3502 H         1 <0>         0.1446
     54 H15         0.3246   -9.9153   -3.3137 H         1 <0>         0.1446
     55 H16         0.1847   -3.9983   -3.6711 H         1 <0>         0.1101
     56 H17         0.3282   -3.9980   -5.4452 H         1 <0>         0.1027
     57 H18        -0.4562   -5.3638   -4.6160 H         1 <0>         0.0965
     58 H19         4.0046   -6.0675   -5.5560 H         1 <0>         0.1353
     59 H20         3.2693   -7.3858   -4.6125 H         1 <0>         0.1393
     60 H21         4.4014   -8.1852   -6.7192 H         1 <0>         0.1204
     61 H22         2.6616   -8.5744   -6.6693 H         1 <0>         0.1052
     62 H23         0.9211   -4.7598   -6.8551 H         1 <0>         0.1522
     63 H24         2.6935   -4.6013   -6.8081 H         1 <0>         0.1393
     64 H25         2.0464   -5.9218  -10.2231 H         1 <0>         0.0972
     65 H26         1.2285   -4.6048   -9.3485 H         1 <0>         0.0632
     66 H27         3.0032   -4.7345   -9.3050 H         1 <0>         0.0845
     67 H28         5.1924   -8.5394   -8.1654 H         1 <0>         0.4030
     68 H29         5.5695   -5.9329  -10.6049 H         1 <0>         0.1582
     69 H30         7.3387   -5.8668  -12.3142 H         1 <0>         0.1275
     70 H31         8.9006   -7.7548  -12.5457 H         1 <0>         0.1265
     71 H32         8.6982   -9.7134  -11.0697 H         1 <0>         0.1290
     72 H33         6.2428  -10.8595   -9.5466 H         1 <0>         0.0738
     73 H34         7.8908  -10.5650   -8.9420 H         1 <0>         0.0762
     74 H35         6.4972   -9.8112   -8.1308 H         1 <0>         0.0516
     75 H36         1.1833   -6.8578   -5.6968 H         1 <0>         0.4345
@<TRIPOS>BOND
     1    1    2 1
     2    1   42 1
     3    1   43 1
     4    1   44 1
     5    2    3 1
     6    2   45 1
     7    2   46 1
     8    3    4 1
     9    4    9 ar
    10    4    5 ar
    11    5    6 ar
    12    5   47 1
    13    6    7 ar
    14    6   48 1
    15    7    8 ar
    16    7   10 1
    17    8    9 ar
    18    8   49 1
    19    9   50 1
    20   10   20 1
    21   10   11 am
    22   11   12 2
    23   11   13 1
    24   13   18 ar
    25   13   14 ar
    26   14   15 ar
    27   14   51 1
    28   15   16 ar
    29   15   52 1
    30   16   17 ar
    31   16   53 1
    32   17   18 ar
    33   17   54 1
    34   18   19 1
    35   19   20 2
    36   20   21 1
    37   21   22 1
    38   21   23 1
    39   21   24 1
    40   23   55 1
    41   23   56 1
    42   23   57 1
    43   24   30 1
    44   24   25 1
    45   24   75 1
    46   25   26 1
    47   25   58 1
    48   25   59 1
    49   26   27 1
    50   26   60 1
    51   26   61 1
    52   27   28 1
    53   27   32 am
    54   28   29 1
    55   28   30 1
    56   28   31 1
    57   30   62 1
    58   30   63 1
    59   31   64 1
    60   31   65 1
    61   31   66 1
    62   32   33 2
    63   32   34 am
    64   34   35 1
    65   34   67 1
    66   35   40 ar
    67   35   36 ar
    68   36   37 ar
    69   36   68 1
    70   37   38 ar
    71   37   69 1
    72   38   39 ar
    73   38   70 1
    74   39   40 ar
    75   39   71 1
    76   40   41 1
    77   41   72 1
    78   41   73 1
    79   41   74 1
@<TRIPOS>MOLECULE
ZINC36017374
   81    83     0     0     0
SMALL
USER_CHARGES

@<TRIPOS>ATOM
      1 C1          0.2166    2.0033   -0.0579 C.3       1 <0>        -0.1783
      2 C2          0.0812    0.4960    0.1670 C.3       1 <0>         0.0841
      3 N1          0.6747   -0.2218   -0.9638 N.am      1 <0>        -0.5331
      4 C3         -0.1387   -0.5718   -2.0034 C.2       1 <0>         0.1965
      5 C4          0.3465   -1.2346   -3.0754 C.2       1 <0>        -0.2272
      6 C5          1.8229   -1.5754   -3.0849 C.3       1 <0>         0.2288
      7 H1          2.2666   -1.1227   -3.9717 H         1 <0>         0.1082
      8 N2          2.6127   -1.1528   -1.9160 N.am      1 <0>        -0.7039
      9 C6          1.9853   -0.4929   -0.9225 C.2       1 <0>         0.7039
     10 O1          2.6292   -0.1364    0.0449 O.2       1 <0>        -0.5321
     11 C7          1.9536   -3.0709   -3.2169 C.ar      1 <0>        -0.1008
     12 C8          0.8719   -3.8864   -2.9408 C.ar      1 <0>        -0.0988
     13 C9          0.9918   -5.2580   -3.0619 C.ar      1 <0>        -0.0864
     14 C10         2.1933   -5.8145   -3.4596 C.ar      1 <0>        -0.1016
     15 C11         3.2744   -4.9992   -3.7366 C.ar      1 <0>        -0.1043
     16 C12         3.1533   -3.6269   -3.6196 C.ar      1 <0>        -0.0665
     17 C13         4.3305   -2.7376   -3.9266 C.3       1 <0>        -0.1309
     18 C14        -0.1870   -6.1470   -2.7599 C.3       1 <0>        -0.1160
     19 C15        -0.4950   -1.5987   -4.1525 C.2       1 <0>         0.5405
     20 O2         -1.6713   -1.2876   -4.1376 O.2       1 <0>        -0.5436
     21 O3          0.0067   -2.2909   -5.1966 O.3       1 <0>        -0.3185
     22 C16        -0.8704   -2.5275   -6.2997 C.3       1 <0>         0.0615
     23 C17        -0.1709   -3.4226   -7.3245 C.3       1 <0>        -0.1564
     24 C18        -1.6015   -0.2132   -1.9534 C.3       1 <0>         0.0001
     25 N3         -2.3800   -1.3885   -1.5402 N.4       1 <0>        -0.3527
     26 C19        -3.7958   -1.1063   -1.7659 C.3       1 <0>        -0.0011
     27 C20        -4.5228   -2.4007   -2.0562 C.3       1 <0>        -0.1542
     28 C21        -5.1042   -2.9664   -0.7478 C.3       1 <0>         0.1153
     29 N4         -4.1598   -2.7886    0.3737 N.am      1 <0>        -0.6381
     30 C22        -2.7357   -3.0115    0.2306 C.3       1 <0>         0.0968
     31 C23        -2.0405   -1.7011   -0.2051 C.3       1 <0>        -0.0716
     32 C24        -4.6401   -2.4047    1.5730 C.2       1 <0>         0.7009
     33 O4         -5.8392   -2.2923    1.7399 O.2       1 <0>        -0.5537
     34 N5         -3.7912   -2.1454    2.5872 N.am      1 <0>        -0.7361
     35 C25        -4.3151   -1.8342    3.9195 C.3       1 <0>         0.1837
     36 C26        -5.1492   -3.0119    4.4275 C.3       1 <0>        -0.1664
     37 C27        -3.1506   -1.5823    4.8794 C.3       1 <0>        -0.1584
     38 C28        -5.1927   -0.5832    3.8430 C.3       1 <0>        -0.1660
     39 H2          1.2715    2.2649   -0.1410 H         1 <0>         0.0784
     40 H3         -0.3002    2.2815   -0.9764 H         1 <0>         0.0611
     41 H4         -0.2250    2.5373    0.7834 H         1 <0>         0.0883
     42 H5          0.5979    0.2178    1.0855 H         1 <0>         0.1198
     43 H6         -0.9737    0.2344    0.2501 H         1 <0>         0.0819
     44 H7          3.5627   -1.3421   -1.8639 H         1 <0>         0.4396
     45 H8         -0.0667   -3.4517   -2.6301 H         1 <0>         0.0944
     46 H9          2.2872   -6.8863   -3.5536 H         1 <0>         0.1277
     47 H10         4.2131   -5.4339   -4.0469 H         1 <0>         0.1300
     48 H11         4.9579   -2.6463   -3.0400 H         1 <0>         0.0760
     49 H12         4.9118   -3.1722   -4.7398 H         1 <0>         0.0790
     50 H13         3.9733   -1.7511   -4.2221 H         1 <0>         0.0682
     51 H14        -0.7685   -6.3006   -3.6689 H         1 <0>         0.0733
     52 H15         0.1685   -7.1084   -2.3892 H         1 <0>         0.0733
     53 H16        -0.8136   -5.6750   -2.0032 H         1 <0>         0.0570
     54 H17        -1.7757   -3.0201   -5.9449 H         1 <0>         0.0735
     55 H18        -1.1325   -1.5776   -6.7657 H         1 <0>         0.0752
     56 H19        -0.8046   -3.5309   -8.2048 H         1 <0>         0.0865
     57 H20         0.7782   -2.9712   -7.6134 H         1 <0>         0.0714
     58 H21         0.0118   -4.4034   -6.8855 H         1 <0>         0.0683
     59 H22        -1.7535    0.5936   -1.2365 H         1 <0>         0.1485
     60 H23        -1.9300    0.1114   -2.9407 H         1 <0>         0.1916
     61 H24        -4.2206   -0.6420   -0.8759 H         1 <0>         0.1331
     62 H25        -3.9015   -0.4312   -2.6150 H         1 <0>         0.1446
     63 H26        -5.3318   -2.2126   -2.7620 H         1 <0>         0.1303
     64 H27        -3.8259   -3.1206   -2.4854 H         1 <0>         0.0869
     65 H28        -6.0352   -2.4488   -0.5168 H         1 <0>         0.1125
     66 H29        -5.3094   -4.0290   -0.8775 H         1 <0>         0.0859
     67 H30        -2.3229   -3.3404    1.1843 H         1 <0>         0.1218
     68 H31        -2.5633   -3.7807   -0.5221 H         1 <0>         0.1055
     69 H32        -0.9601   -1.8219   -0.1261 H         1 <0>         0.1372
     70 H33        -2.3594   -0.8888    0.4481 H         1 <0>         0.1375
     71 H34        -2.8334   -2.1649    2.4351 H         1 <0>         0.3896
     72 H35        -4.5240   -3.9032    4.4820 H         1 <0>         0.0549
     73 H36        -5.5390   -2.7804    5.4187 H         1 <0>         0.0702
     74 H37        -5.9788   -3.1914    3.7436 H         1 <0>         0.0764
     75 H38        -2.5564   -0.7432    4.5175 H         1 <0>         0.0615
     76 H39        -3.5404   -1.3507    5.8706 H         1 <0>         0.0820
     77 H40        -2.5254   -2.4735    4.9339 H         1 <0>         0.0633
     78 H41        -6.0223   -0.7626    3.1591 H         1 <0>         0.0825
     79 H42        -5.5825   -0.3516    4.8342 H         1 <0>         0.0685
     80 H43        -4.5985    0.2559    3.4811 H         1 <0>         0.0511
     81 H44        -2.1153   -2.1660   -2.1263 H         1 <0>         0.4179
@<TRIPOS>BOND
     1    1    2 1
     2    1   39 1
     3    1   40 1
     4    1   41 1
     5    2    3 1
     6    2   42 1
     7    2   43 1
     8    3    9 am
     9    3    4 1
    10    4    5 2
    11    4   24 1
    12    5    6 1
    13    5   19 1
    14    6    7 1
    15    6    8 1
    16    6   11 1
    17    8    9 am
    18    8   44 1
    19    9   10 2
    20   11   16 ar
    21   11   12 ar
    22   12   13 ar
    23   12   45 1
    24   13   14 ar
    25   13   18 1
    26   14   15 ar
    27   14   46 1
    28   15   16 ar
    29   15   47 1
    30   16   17 1
    31   17   48 1
    32   17   49 1
    33   17   50 1
    34   18   51 1
    35   18   52 1
    36   18   53 1
    37   19   20 2
    38   19   21 1
    39   21   22 1
    40   22   23 1
    41   22   54 1
    42   22   55 1
    43   23   56 1
    44   23   57 1
    45   23   58 1
    46   24   25 1
    47   24   59 1
    48   24   60 1
    49   25   31 1
    50   25   26 1
    51   25   81 1
    52   26   27 1
    53   26   61 1
    54   26   62 1
    55   27   28 1
    56   27   63 1
    57   27   64 1
    58   28   29 1
    59   28   65 1
    60   28   66 1
    61   29   30 1
    62   29   32 am
    63   30   31 1
    64   30   67 1
    65   30   68 1
    66   31   69 1
    67   31   70 1
    68   32   33 2
    69   32   34 am
    70   34   35 1
    71   34   71 1
    72   35   36 1
    73   35   37 1
    74   35   38 1
    75   36   72 1
    76   36   73 1
    77   36   74 1
    78   37   75 1
    79   37   76 1
    80   37   77 1
    81   38   78 1
    82   38   79 1
    83   38   80 1
@<TRIPOS>MOLECULE
ZINC59170417
   68    71     0     0     0
SMALL
USER_CHARGES

@<TRIPOS>ATOM
      1 C1         -0.3139    0.6593   -0.3064 C.3       1 <0>        -0.1764
      2 C2         -0.1876   -0.7116    0.3612 C.3       1 <0>         0.1000
      3 N1          0.6774   -0.6036    1.5386 N.pl3     1 <0>        -0.5838
      4 C3          0.0976   -0.2922    2.8474 C.3       1 <0>         0.0974
      5 C4         -0.2791   -1.5923    3.5607 C.3       1 <0>        -0.1765
      6 C5          2.0494   -0.7967    1.4138 C.ar      1 <0>         0.3085
      7 C6          2.5974   -1.0873    0.1650 C.ar      1 <0>        -0.2005
      8 C7          3.9420   -1.2807    0.0280 C.ar      1 <0>         0.0254
      9 C8          4.7774   -1.1867    1.1479 C.ar      1 <0>        -0.2387
     10 C9          6.2221   -1.3962    1.0212 C.2       1 <0>         0.1479
     11 C10         6.9470   -1.5610    2.1797 C.2       1 <0>        -0.2885
     12 C11         6.2014   -1.5113    3.4588 C.2       1 <0>         0.5263
     13 N2          6.6396   -2.1327    4.5170 N.pl3     1 <0>        -0.3106
     14 N3          5.8736   -2.1443    5.6900 N.pl3     1 <0>        -0.9172
     15 S1          6.4847   -2.8229    7.0714 S.o2      1 <0>         2.6653
     16 O1          5.6039   -2.4606    8.1259 O.2       1 <0>        -0.8950
     17 O2          6.7846   -4.1767    6.7604 O.2       1 <0>        -0.9117
     18 C12         8.0226   -2.0303    7.4049 C.ar      1 <0>        -0.7002
     19 C13         9.1796   -2.4839    6.7995 C.ar      1 <0>        -0.0196
     20 C14        10.3862   -1.8621    7.0612 C.ar      1 <0>        -0.1274
     21 C15        10.4356   -0.7863    7.9279 C.ar      1 <0>        -0.0066
     22 C16         9.2785   -0.3321    8.5326 C.ar      1 <0>        -0.1364
     23 C17         8.0713   -0.9513    8.2676 C.ar      1 <0>        -0.0067
     24 C18        11.7511   -0.1090    8.2139 C.3       1 <0>        -0.1334
     25 O3          5.0412   -0.7933    3.4936 O.3       1 <0>        -0.2153
     26 C19         4.2286   -0.8906    2.4105 C.ar      1 <0>         0.1836
     27 C20         2.8664   -0.6931    2.5341 C.ar      1 <0>        -0.2127
     28 C21         8.4010   -1.7779    2.1488 C.2       1 <0>         0.5793
     29 O4          9.0323   -1.8182    3.1881 O.2       1 <0>        -0.5255
     30 N4          9.0345   -1.9320    0.9692 N.am      1 <0>        -0.6470
     31 C22        10.3871   -2.2856    0.9429 C.ar      1 <0>         0.1195
     32 C23        10.9112   -3.1066    1.9331 C.ar      1 <0>        -0.1107
     33 C24        12.2474   -3.4544    1.9040 C.ar      1 <0>        -0.1016
     34 C25        13.0635   -2.9858    0.8906 C.ar      1 <0>        -0.0820
     35 C26        12.5449   -2.1680   -0.0966 C.ar      1 <0>        -0.0993
     36 C27        11.2082   -1.8214   -0.0767 C.ar      1 <0>        -0.1284
     37 C28        14.5212   -3.3670    0.8623 C.3       1 <0>        -0.1214
     38 H1          0.6731    1.0073   -0.6113 H         1 <0>         0.0617
     39 H2         -0.9575    0.5789   -1.1824 H         1 <0>         0.0786
     40 H3         -0.7472    1.3684    0.3990 H         1 <0>         0.0635
     41 H4         -1.1745   -1.0595    0.6661 H         1 <0>         0.0931
     42 H5          0.2458   -1.4206   -0.3442 H         1 <0>         0.0888
     43 H6          0.8262    0.2533    3.4471 H         1 <0>         0.0856
     44 H7         -0.7941    0.3202    2.7134 H         1 <0>         0.0943
     45 H8          0.6126   -2.2047    3.6947 H         1 <0>         0.0591
     46 H9         -0.7105   -1.3606    4.5345 H         1 <0>         0.0782
     47 H10        -1.0077   -2.1378    2.9610 H         1 <0>         0.0654
     48 H11         1.9541   -1.1601   -0.6995 H         1 <0>         0.1533
     49 H12         4.3604   -1.5060   -0.9418 H         1 <0>         0.1585
     50 H13         6.7011   -1.4200    0.0536 H         1 <0>         0.1821
     51 H14         4.9852   -1.7547    5.6930 H         1 <0>         0.4539
     52 H15         9.1410   -3.3244    6.1224 H         1 <0>         0.1379
     53 H16        11.2902   -2.2169    6.5887 H         1 <0>         0.1415
     54 H17         9.3172    0.5081    9.2100 H         1 <0>         0.1420
     55 H18         7.1667   -0.5941    8.7372 H         1 <0>         0.1472
     56 H19        11.9092    0.6957    7.4959 H         1 <0>         0.0860
     57 H20        11.7361    0.3024    9.2232 H         1 <0>         0.0796
     58 H21        12.5596   -0.8352    8.1296 H         1 <0>         0.0795
     59 H22         2.4374   -0.4633    3.4983 H         1 <0>         0.1579
     60 H23         8.5521   -1.7976    0.1384 H         1 <0>         0.4132
     61 H24        10.2746   -3.4722    2.7252 H         1 <0>         0.1318
     62 H25        12.6556   -4.0926    2.6736 H         1 <0>         0.1303
     63 H26        13.1850   -1.8034   -0.8864 H         1 <0>         0.1324
     64 H27        10.8028   -1.1863   -0.8505 H         1 <0>         0.1295
     65 H28        14.6453   -4.2862    0.2899 H         1 <0>         0.0760
     66 H29        15.0967   -2.5677    0.3953 H         1 <0>         0.0705
     67 H30        14.8759   -3.5227    1.8811 H         1 <0>         0.0698
     68 H31         7.4961   -2.5873    4.4926 H         1 <0>         0.4789
@<TRIPOS>BOND
     1    1    2 1
     2    1   38 1
     3    1   39 1
     4    1   40 1
     5    2    3 1
     6    2   41 1
     7    2   42 1
     8    3    4 1
     9    3    6 1
    10    4    5 1
    11    4   43 1
    12    4   44 1
    13    5   45 1
    14    5   46 1
    15    5   47 1
    16    6   27 ar
    17    6    7 ar
    18    7    8 ar
    19    7   48 1
    20    8    9 ar
    21    8   49 1
    22    9   26 ar
    23    9   10 1
    24   10   11 2
    25   10   50 1
    26   11   12 1
    27   11   28 1
    28   12   13 2
    29   12   25 1
    30   13   14 1
    31   13   68 1
    32   14   15 1
    33   14   51 1
    34   15   16 2
    35   15   17 2
    36   15   18 1
    37   18   23 ar
    38   18   19 ar
    39   19   20 ar
    40   19   52 1
    41   20   21 ar
    42   20   53 1
    43   21   22 ar
    44   21   24 1
    45   22   23 ar
    46   22   54 1
    47   23   55 1
    48   24   56 1
    49   24   57 1
    50   24   58 1
    51   25   26 1
    52   26   27 ar
    53   27   59 1
    54   28   29 2
    55   28   30 am
    56   30   31 1
    57   30   60 1
    58   31   36 ar
    59   31   32 ar
    60   32   33 ar
    61   32   61 1
    62   33   34 ar
    63   33   62 1
    64   34   35 ar
    65   34   37 1
    66   35   36 ar
    67   35   63 1
    68   36   64 1
    69   37   65 1
    70   37   66 1
    71   37   67 1
@<TRIPOS>MOLECULE
ZINC63486347
   68    72     0     0     0
SMALL
USER_CHARGES

@<TRIPOS>ATOM
      1 C1         -0.0184    1.5028    0.0103 C.3       1 <0>        -0.1059
      2 C2          0.0021   -0.0041    0.0020 C.ar      1 <0>        -0.1157
      3 C3          0.0057   -0.6900   -1.2019 C.ar      1 <0>         0.1623
      4 C4          0.0235   -2.0805   -1.2203 C.ar      1 <0>        -0.2192
      5 C5          0.0340   -2.7885   -0.0382 C.ar      1 <0>        -0.0313
      6 C6          0.0289   -2.1079    1.1768 C.ar      1 <0>        -0.1415
      7 C7          0.0229   -0.7031    1.1985 C.ar      1 <0>         0.1683
      8 O1          0.0431   -0.0346    2.3788 O.3       1 <0>        -0.2794
      9 C8         -0.4803   -0.6442    3.4688 C.2       1 <0>         0.5331
     10 O2         -1.1368   -0.0245    4.2834 O.2       1 <0>        -0.4227
     11 C9         -0.2252   -2.0868    3.6309 C.ar      1 <0>        -0.1768
     12 C10         0.0284   -2.8351    2.4605 C.ar      1 <0>         0.0052
     13 C11         0.2781   -4.1962    2.5552 C.ar      1 <0>        -0.1175
     14 C12         0.2565   -4.8062    3.7945 C.ar      1 <0>        -0.0739
     15 C13        -0.0118   -4.0734    4.9408 C.ar      1 <0>        -0.1261
     16 C14        -0.2377   -2.7171    4.8689 C.ar      1 <0>        -0.0392
     17 O3         -0.0086    0.0002   -2.3717 O.3       1 <0>        -0.2781
     18 C15        -0.0039   -0.7666   -3.5775 C.3       1 <0>         0.0417
     19 C16        -0.0214    0.1625   -4.7638 C.2       1 <0>         0.5263
     20 O4         -0.0364    1.3632   -4.5935 O.2       1 <0>        -0.4927
     21 N1         -0.0203   -0.3408   -6.0141 N.am      1 <0>        -0.7180
     22 C17        -0.0373    0.5625   -7.1674 C.3       1 <0>         0.1370
     23 H1          0.5414    1.4569   -6.9369 H         1 <0>         0.1279
     24 C18         0.5762   -0.1442   -8.3777 C.3       1 <0>        -0.0962
     25 C19         2.0330   -0.4232   -8.1113 C.2       1 <0>         0.0622
     26 C20         2.5670   -1.5699   -7.6325 C.ar      1 <0>        -0.1628
     27 C21         1.9741   -2.8511   -7.2308 C.ar      1 <0>        -0.0258
     28 C22         2.7838   -3.8358   -6.7794 C.ar      1 <0>        -0.1415
     29 C23         4.1717   -3.6638   -6.6854 C.ar      1 <0>         0.0519
     30 C24         4.7895   -2.5159   -7.0356 C.ar      1 <0>        -0.2052
     31 C25         4.0352   -1.4137   -7.5242 C.ar      1 <0>         0.3294
     32 N2          4.3948   -0.2170   -7.9207 N.pl3     1 <0>        -0.5805
     33 C26         3.1945    0.5200   -8.3314 C.3       1 <0>         0.0599
     34 C27        -1.4594    0.9511   -7.4801 C.2       1 <0>         0.5008
     35 O5         -2.3691    0.5163   -6.8061 O.2       1 <0>        -0.5062
     36 N3         -1.7203    1.7817   -8.5089 N.am      1 <0>        -0.7207
     37 C28        -3.1027    2.1595   -8.8130 C.3       1 <0>         0.1350
     38 C29        -3.1154    3.5056   -9.5402 C.3       1 <0>        -0.1639
     39 C30        -3.7387    1.0917   -9.7053 C.3       1 <0>        -0.1643
     40 H2          1.0042    1.8801    0.0026 H         1 <0>         0.0745
     41 H3         -0.5455    1.8639   -0.8728 H         1 <0>         0.0781
     42 H4         -0.5286    1.8543    0.9071 H         1 <0>         0.0752
     43 H5          0.0286   -2.6067   -2.1634 H         1 <0>         0.1377
     44 H6          0.0459   -3.8683   -0.0538 H         1 <0>         0.1427
     45 H7          0.4879   -4.7743    1.6674 H         1 <0>         0.1368
     46 H8          0.4504   -5.8658    3.8714 H         1 <0>         0.1370
     47 H9         -0.0258   -4.5684    5.9006 H         1 <0>         0.1393
     48 H10        -0.4413   -2.1518    5.7664 H         1 <0>         0.1429
     49 H11         0.8942   -1.3835   -3.6123 H         1 <0>         0.0957
     50 H12        -0.8856   -1.4069   -3.6044 H         1 <0>         0.1038
     51 H13        -0.0083   -1.3011   -6.1503 H         1 <0>         0.4042
     52 H14         0.0526   -1.0838   -8.5539 H         1 <0>         0.1243
     53 H15         0.4833    0.4938   -9.2566 H         1 <0>         0.1336
     54 H16         0.9070   -3.0050   -7.2944 H         1 <0>         0.1591
     55 H17         2.3496   -4.7793   -6.4832 H         1 <0>         0.1598
     56 H18         4.7713   -4.4832   -6.3174 H         1 <0>         0.1622
     57 H19         5.8625   -2.4339   -6.9439 H         1 <0>         0.1617
     58 H20         3.2615    0.7943   -9.3842 H         1 <0>         0.1782
     59 H21         3.0755    1.4124   -7.7169 H         1 <0>         0.1753
     60 H22        -0.9927    2.1295   -9.0480 H         1 <0>         0.3980
     61 H23        -3.6691    2.2423   -7.8854 H         1 <0>         0.0920
     62 H24        -2.5489    3.4227  -10.4678 H         1 <0>         0.0624
     63 H25        -4.1439    3.7866   -9.7664 H         1 <0>         0.0789
     64 H26        -2.6623    4.2663   -8.9045 H         1 <0>         0.0640
     65 H27        -3.1722    1.0089  -10.6329 H         1 <0>         0.0580
     66 H28        -3.7296    0.1328   -9.1872 H         1 <0>         0.0594
     67 H29        -4.7672    1.3728   -9.9315 H         1 <0>         0.0720
     68 H30         5.3030    0.1229   -7.9425 H         1 <0>         0.4574
@<TRIPOS>BOND
     1    1    2 1
     2    1   40 1
     3    1   41 1
     4    1   42 1
     5    2    7 ar
     6    2    3 ar
     7    3    4 ar
     8    3   17 1
     9    4    5 ar
    10    4   43 1
    11    5    6 ar
    12    5   44 1
    13    6   12 1
    14    6    7 ar
    15    7    8 1
    16    8    9 1
    17    9   10 2
    18    9   11 1
    19   11   16 ar
    20   11   12 ar
    21   12   13 ar
    22   13   14 ar
    23   13   45 1
    24   14   15 ar
    25   14   46 1
    26   15   16 ar
    27   15   47 1
    28   16   48 1
    29   17   18 1
    30   18   19 1
    31   18   49 1
    32   18   50 1
    33   19   20 2
    34   19   21 am
    35   21   22 1
    36   21   51 1
    37   22   23 1
    38   22   24 1
    39   22   34 1
    40   24   25 1
    41   24   52 1
    42   24   53 1
    43   25   33 1
    44   25   26 2
    45   26   31 ar
    46   26   27 ar
    47   27   28 ar
    48   27   54 1
    49   28   29 ar
    50   28   55 1
    51   29   30 ar
    52   29   56 1
    53   30   31 ar
    54   30   57 1
    55   31   32 2
    56   32   33 1
    57   32   68 1
    58   33   58 1
    59   33   59 1
    60   34   35 2
    61   34   36 am
    62   36   37 1
    63   36   60 1
    64   37   38 1
    65   37   39 1
    66   37   61 1
    67   38   62 1
    68   38   63 1
    69   38   64 1
    70   39   65 1
    71   39   66 1
    72   39   67 1
@<TRIPOS>MOLECULE
ZINC09882984
   58    61     0     0     0
SMALL
USER_CHARGES
2-[[4-amino-5-[4-(difluoromethoxy)phenyl]-1,2,4-triazol-3-yl]sulfanyl]-N-benzhydryl-propanamide
@<TRIPOS>ATOM
      1 C1         -0.0127    1.0858    0.0080 C.3       1 <0>        -0.1458
      2 C2         -0.7288    1.5792    1.2668 C.3       1 <0>        -0.1211
      3 H1         -0.7436    2.6691    1.2728 H         1 <0>         0.1251
      4 C3         -2.1427    1.0576    1.2775 C.2       1 <0>         0.5426
      5 O1         -2.4267    0.0892    1.9502 O.2       1 <0>        -0.5145
      6 N1         -3.0915    1.6672    0.5395 N.am      1 <0>        -0.7143
      7 C4         -4.4659    1.1601    0.5499 C.3       1 <0>         0.2318
      8 C5         -5.2080    1.7446    1.7241 C.ar      1 <0>        -0.0924
      9 C6         -5.0137    3.0673    2.0757 C.ar      1 <0>        -0.1030
     10 C7         -5.6985    3.6048    3.1495 C.ar      1 <0>        -0.1198
     11 C8         -6.5694    2.8167    3.8784 C.ar      1 <0>        -0.1166
     12 C9         -6.7594    1.4924    3.5303 C.ar      1 <0>        -0.1175
     13 C10        -6.0789    0.9565    2.4530 C.ar      1 <0>        -0.1003
     14 C11        -5.1572    1.5565   -0.7291 C.ar      1 <0>        -0.0899
     15 C12        -4.9532    2.8148   -1.2638 C.ar      1 <0>        -0.1112
     16 C13        -5.5832    3.1766   -2.4399 C.ar      1 <0>        -0.1142
     17 C14        -6.4259    2.2838   -3.0754 C.ar      1 <0>        -0.1150
     18 C15        -6.6344    1.0275   -2.5377 C.ar      1 <0>        -0.1141
     19 C16        -5.9999    0.6638   -1.3646 C.ar      1 <0>        -0.1029
     20 S1          0.1466    0.9796    2.7332 S.3       1 <0>         0.1127
     21 C17         1.6745    1.8378    2.5496 C.2       1 <0>         0.1767
     22 N2          1.9924    2.6645    1.5790 N.2       1 <0>        -0.2847
     23 N3          3.1838    3.1133    1.7539 N.2       1 <0>        -0.2517
     24 C18         3.7000    2.6009    2.8468 C.2       1 <0>         0.1966
     25 N4          2.7472    1.7723    3.3932 N.pl3     1 <0>        -0.3027
     26 N5          2.8529    1.0356    4.5386 N.3       1 <0>        -0.5863
     27 C19         5.0479    2.8688    3.3911 C.ar      1 <0>        -0.0425
     28 C20         5.5822    2.0380    4.3776 C.ar      1 <0>        -0.0828
     29 C21         6.8415    2.2884    4.8792 C.ar      1 <0>        -0.1810
     30 C22         7.5742    3.3716    4.4121 C.ar      1 <0>         0.1234
     31 C23         7.0442    4.2036    3.4347 C.ar      1 <0>        -0.1249
     32 C24         5.7877    3.9568    2.9242 C.ar      1 <0>        -0.0357
     33 O2          8.8128    3.6184    4.9131 O.3       1 <0>        -0.3157
     34 C25         9.2972    2.7232    5.9161 C.3       1 <0>         0.4108
     35 F1          8.4348    2.7462    7.0175 F         1 <0>        -0.1963
     36 F2          9.3540    1.4260    5.3953 F         1 <0>        -0.1963
     37 H2          0.0021   -0.0041    0.0020 H         1 <0>         0.0715
     38 H3          1.0099    1.4631    0.0003 H         1 <0>         0.0902
     39 H4         -0.5399    1.4469   -0.8751 H         1 <0>         0.0733
     40 H5         -2.8643    2.4417    0.0015 H         1 <0>         0.4037
     41 H6         -4.4516    0.0735    0.6335 H         1 <0>         0.1076
     42 H7         -4.3299    3.6818    1.5090 H         1 <0>         0.1161
     43 H8         -5.5502    4.6395    3.4213 H         1 <0>         0.1220
     44 H9         -7.1015    3.2356    4.7196 H         1 <0>         0.1221
     45 H10        -7.4399    0.8767    4.0997 H         1 <0>         0.1237
     46 H11        -6.2274   -0.0781    2.1810 H         1 <0>         0.1225
     47 H12        -4.2983    3.5139   -0.7649 H         1 <0>         0.1193
     48 H13        -5.4201    4.1579   -2.8602 H         1 <0>         0.1252
     49 H14        -6.9210    2.5678   -3.9922 H         1 <0>         0.1242
     50 H15        -7.2927    0.3301   -3.0342 H         1 <0>         0.1258
     51 H16        -6.1628   -0.3177   -0.9445 H         1 <0>         0.1251
     52 H17         3.2274    0.1188    4.3455 H         1 <0>         0.3696
     53 H18         3.4113    1.5165    5.2277 H         1 <0>         0.3800
     54 H19         5.0112    1.1979    4.7445 H         1 <0>         0.1217
     55 H20         7.2571    1.6439    5.6396 H         1 <0>         0.1430
     56 H21         7.6173    5.0448    3.0738 H         1 <0>         0.1482
     57 H22         5.3760    4.6045    2.1643 H         1 <0>         0.1517
     58 H23        10.2943    3.0331    6.2289 H         1 <0>         0.1870
@<TRIPOS>BOND
     1    1    2 1
     2    1   37 1
     3    1   38 1
     4    1   39 1
     5    2    3 1
     6    2    4 1
     7    2   20 1
     8    4    5 2
     9    4    6 am
    10    6    7 1
    11    6   40 1
    12    7    8 1
    13    7   14 1
    14    7   41 1
    15    8   13 ar
    16    8    9 ar
    17    9   10 ar
    18    9   42 1
    19   10   11 ar
    20   10   43 1
    21   11   12 ar
    22   11   44 1
    23   12   13 ar
    24   12   45 1
    25   13   46 1
    26   14   19 ar
    27   14   15 ar
    28   15   16 ar
    29   15   47 1
    30   16   17 ar
    31   16   48 1
    32   17   18 ar
    33   17   49 1
    34   18   19 ar
    35   18   50 1
    36   19   51 1
    37   20   21 1
    38   21   25 1
    39   21   22 2
    40   22   23 1
    41   23   24 2
    42   24   25 1
    43   24   27 1
    44   25   26 1
    45   26   52 1
    46   26   53 1
    47   27   32 ar
    48   27   28 ar
    49   28   29 ar
    50   28   54 1
    51   29   30 ar
    52   29   55 1
    53   30   31 ar
    54   30   33 1
    55   31   32 ar
    56   31   56 1
    57   32   57 1
    58   33   34 1
    59   34   35 1
    60   34   36 1
    61   34   58 1
@<TRIPOS>MOLECULE
ZINC14664461
   61    63     0     0     0
SMALL
USER_CHARGES
N-[[4-[(3,5-dimethylphenyl)sulfamoyl]phenyl]carbamothioyl]-2-isopropoxy-benzamide
@<TRIPOS>ATOM
      1 C1         -3.1953   -1.9162   -5.5784 C.3       1 <0>        -0.1156
      2 C2         -4.1392   -2.5957   -4.6202 C.ar      1 <0>        -0.0758
      3 C3         -4.2088   -3.9762   -4.5815 C.ar      1 <0>        -0.1124
      4 C4         -5.0737   -4.6038   -3.7037 C.ar      1 <0>        -0.0717
      5 C5         -5.8711   -3.8530   -2.8623 C.ar      1 <0>        -0.1131
      6 C6         -5.8037   -2.4660   -2.8986 C.ar      1 <0>         0.1298
      7 C7         -4.9377   -1.8388   -3.7853 C.ar      1 <0>        -0.1182
      8 N1         -6.6091   -1.7037   -2.0494 N.pl3     1 <0>        -1.0628
      9 S1         -6.2515   -1.6067   -0.4354 S.o2      1 <0>         2.6887
     10 O1         -6.1226   -2.9421    0.0330 O.2       1 <0>        -0.9455
     11 O2         -7.1747   -0.6866    0.1305 O.2       1 <0>        -0.9495
     12 C8         -4.6572   -0.8689   -0.2985 C.ar      1 <0>        -0.6678
     13 C9         -4.5428    0.4948   -0.0999 C.ar      1 <0>        -0.0117
     14 C10        -3.2947    1.0761    0.0084 C.ar      1 <0>        -0.0913
     15 C11        -2.1537    0.2895   -0.0829 C.ar      1 <0>         0.1792
     16 C12        -2.2720   -1.0790   -0.2881 C.ar      1 <0>        -0.1390
     17 C13        -3.5231   -1.6549   -0.3902 C.ar      1 <0>        -0.0082
     18 N2         -0.8882    0.8752    0.0258 N.pl3     1 <0>        -0.6310
     19 C14        -0.6375    1.7603    1.0108 C.2       1 <0>         0.5093
     20 S2         -1.8990    2.2577    2.0559 S.2       1 <0>        -0.4701
     21 N3          0.6073    2.2495    1.1765 N.am      1 <0>        -0.6383
     22 C15         0.8591    3.1304    2.1650 C.2       1 <0>         0.5319
     23 O3         -0.0365    3.4836    2.9071 O.2       1 <0>        -0.3780
     24 C16         2.2211    3.6656    2.3463 C.ar      1 <0>        -0.1805
     25 C17         3.2550    3.2579    1.4991 C.ar      1 <0>        -0.0515
     26 C18         4.5244    3.7652    1.6712 C.ar      1 <0>        -0.1652
     27 C19         4.7836    4.6708    2.6874 C.ar      1 <0>        -0.0438
     28 C20         3.7726    5.0785    3.5345 C.ar      1 <0>        -0.2193
     29 C21         2.4876    4.5820    3.3731 C.ar      1 <0>         0.2004
     30 O4          1.4934    4.9810    4.2052 O.3       1 <0>        -0.2739
     31 C22         1.8143    5.9945    5.1602 C.3       1 <0>         0.0716
     32 C23         0.5406    6.7445    5.5553 C.3       1 <0>        -0.1485
     33 C24         2.4316    5.3481    6.4019 C.3       1 <0>        -0.1817
     34 C25        -5.1457   -6.1085   -3.6647 C.3       1 <0>        -0.1188
     35 H1         -3.7058   -1.7352   -6.5243 H         1 <0>         0.0729
     36 H2         -2.8683   -0.9667   -5.1545 H         1 <0>         0.0663
     37 H3         -2.3290   -2.5552   -5.7495 H         1 <0>         0.0683
     38 H4         -3.5861   -4.5657   -5.2381 H         1 <0>         0.1259
     39 H5         -6.5460   -4.3438   -2.1768 H         1 <0>         0.1361
     40 H6         -4.8861   -0.7606   -3.8191 H         1 <0>         0.1278
     41 H7         -7.3779   -1.2311   -2.4051 H         1 <0>         0.4265
     42 H8         -5.4305    1.1059   -0.0290 H         1 <0>         0.1483
     43 H9         -3.2061    2.1411    0.1642 H         1 <0>         0.1555
     44 H10        -1.3866   -1.6928   -0.3641 H         1 <0>         0.1354
     45 H11        -3.6159   -2.7196   -0.5454 H         1 <0>         0.1431
     46 H12        -0.1909    0.6443   -0.6078 H         1 <0>         0.4100
     47 H13         1.3220    1.9676    0.5843 H         1 <0>         0.4078
     48 H14         3.0585    2.5491    0.7083 H         1 <0>         0.1271
     49 H15         5.3220    3.4521    1.0139 H         1 <0>         0.1333
     50 H16         5.7826    5.0598    2.8177 H         1 <0>         0.1338
     51 H17         3.9826    5.7847    4.3242 H         1 <0>         0.1411
     52 H18         2.5267    6.6937    4.7223 H         1 <0>         0.0746
     53 H19        -0.1717    6.0452    5.9932 H         1 <0>         0.0716
     54 H20         0.7854    7.5176    6.2837 H         1 <0>         0.0779
     55 H21         0.1008    7.2050    4.6707 H         1 <0>         0.0664
     56 H22         2.6764    6.1212    7.1303 H         1 <0>         0.0752
     57 H23         1.7192    4.6489    6.8398 H         1 <0>         0.0713
     58 H24         3.3390    4.8138    6.1204 H         1 <0>         0.0614
     59 H25        -5.9013   -6.4545   -4.3701 H         1 <0>         0.0737
     60 H26        -4.1763   -6.5259   -3.9370 H         1 <0>         0.0690
     61 H27        -5.4116   -6.4336   -2.6589 H         1 <0>         0.0716
@<TRIPOS>BOND
     1    1    2 1
     2    1   35 1
     3    1   36 1
     4    1   37 1
     5    2    7 ar
     6    2    3 ar
     7    3    4 ar
     8    3   38 1
     9    4    5 ar
    10    4   34 1
    11    5    6 ar
    12    5   39 1
    13    6    7 ar
    14    6    8 1
    15    7   40 1
    16    8    9 1
    17    8   41 1
    18    9   10 2
    19    9   11 2
    20    9   12 1
    21   12   17 ar
    22   12   13 ar
    23   13   14 ar
    24   13   42 1
    25   14   15 ar
    26   14   43 1
    27   15   16 ar
    28   15   18 1
    29   16   17 ar
    30   16   44 1
    31   17   45 1
    32   18   19 1
    33   18   46 1
    34   19   20 2
    35   19   21 1
    36   21   22 am
    37   21   47 1
    38   22   23 2
    39   22   24 1
    40   24   29 ar
    41   24   25 ar
    42   25   26 ar
    43   25   48 1
    44   26   27 ar
    45   26   49 1
    46   27   28 ar
    47   27   50 1
    48   28   29 ar
    49   28   51 1
    50   29   30 1
    51   30   31 1
    52   31   32 1
    53   31   33 1
    54   31   52 1
    55   32   53 1
    56   32   54 1
    57   32   55 1
    58   33   56 1
    59   33   57 1
    60   33   58 1
    61   34   59 1
    62   34   60 1
    63   34   61 1
@<TRIPOS>MOLECULE
ZINC21628497
   54    56     0     0     0
SMALL
USER_CHARGES
(2R)-2-[[4-amino-5-[(3,5-dimethylphenoxy)methyl]-1,2,4-triazol-3-yl]sulfanyl]-N-[4-chloro-2-(trifluoromethyl)phenyl]propanamide
@<TRIPOS>ATOM
      1 C1        -10.8581   -9.7412    0.7637 C.3       1 <0>        -0.1208
      2 C2        -10.4788   -8.6694    1.7528 C.ar      1 <0>        -0.0399
      3 C3        -11.0188   -8.6816    3.0256 C.ar      1 <0>        -0.1565
      4 C4        -10.6721   -7.7001    3.9357 C.ar      1 <0>        -0.0401
      5 C5         -9.7853   -6.7042    3.5750 C.ar      1 <0>        -0.1549
      6 C6         -9.2425   -6.6894    2.2984 C.ar      1 <0>         0.1365
      7 C7         -9.5963   -7.6721    1.3852 C.ar      1 <0>        -0.2175
      8 O1         -8.3698   -5.7108    1.9411 O.3       1 <0>        -0.3090
      9 C8         -7.8507   -5.7584    0.6106 C.3       1 <0>         0.1549
     10 C9         -6.9073   -4.6027    0.3977 C.2       1 <0>         0.1526
     11 N1         -7.2241   -3.4188   -0.0447 N.2       1 <0>        -0.2419
     12 N2         -6.1781   -2.6740   -0.1000 N.2       1 <0>        -0.2747
     13 C10        -5.1268   -3.3512    0.2999 C.2       1 <0>         0.1225
     14 N3         -5.5601   -4.6023    0.6332 N.pl3     1 <0>        -0.1993
     15 N4         -4.8048   -5.6386    1.1040 N.3       1 <0>        -0.7615
     16 S1         -3.4713   -2.7557    0.3957 S.3       1 <0>         0.0964
     17 C11        -3.7110   -1.0634   -0.2000 C.3       1 <0>        -0.1094
     18 H1         -4.4412   -0.4157    0.3073 H         1 <0>         0.1300
     19 C12        -4.1593   -1.0962   -1.6625 C.3       1 <0>        -0.1523
     20 C13        -2.4145   -0.3033   -0.0890 C.2       1 <0>         0.5416
     21 O2         -1.3588   -0.9005   -0.0974 O.2       1 <0>        -0.4995
     22 N5         -2.4280    1.0400    0.0196 N.am      1 <0>        -0.6850
     23 C14        -1.2238    1.7536    0.0278 C.ar      1 <0>         0.2101
     24 C15        -0.0954    1.2071    0.6252 C.ar      1 <0>        -0.1133
     25 C16         1.0926    1.9110    0.6273 C.ar      1 <0>        -0.0548
     26 C17         1.1582    3.1620    0.0389 C.ar      1 <0>        -0.0545
     27 C18         0.0340    3.7111   -0.5519 C.ar      1 <0>        -0.0436
     28 C19        -1.1568    3.0112   -0.5567 C.ar      1 <0>        -0.2030
     29 C20        -2.3806    3.6095   -1.2013 C.3       1 <0>         0.5131
     30 F1         -2.0650    4.8692   -1.7216 F         1 <0>        -0.1688
     31 F2         -2.8187    2.7745   -2.2348 F         1 <0>        -0.1698
     32 F3         -3.3942    3.7401   -0.2459 F         1 <0>        -0.1755
     33 Cl1         2.6535    4.0440    0.0427 Cl        1 <0>        -0.0496
     34 C21       -11.2618   -7.7171    5.3224 C.3       1 <0>        -0.1198
     35 H2        -11.5646  -10.4408    1.2342 H         1 <0>         0.0691
     36 H3         -9.9558  -10.2867    0.4502 H         1 <0>         0.0720
     37 H4        -11.3307   -9.2784   -0.1152 H         1 <0>         0.0732
     38 H5        -11.7123   -9.4594    3.3095 H         1 <0>         0.1248
     39 H6         -9.5146   -5.9380    4.2863 H         1 <0>         0.1298
     40 H7         -9.1786   -7.6602    0.3894 H         1 <0>         0.1272
     41 H8         -7.3105   -6.7049    0.4615 H         1 <0>         0.0816
     42 H9         -8.6799   -5.6922   -0.1091 H         1 <0>         0.1063
     43 H10        -3.7225   -5.5081    1.2507 H         1 <0>         0.4511
     44 H11        -5.2789   -6.6036    1.3365 H         1 <0>         0.4503
     45 H12        -4.3050   -0.0677   -2.0245 H         1 <0>         0.0760
     46 H13        -5.1057   -1.6510   -1.7435 H         1 <0>         0.0970
     47 H14        -3.3895   -1.5935   -2.2709 H         1 <0>         0.0728
     48 H15        -3.3853    1.5756    0.1018 H         1 <0>         0.4435
     49 H16        -0.1459    0.2306    1.0838 H         1 <0>         0.1613
     50 H17         1.9715    1.4847    1.0881 H         1 <0>         0.1495
     51 H18         0.0877    4.6876   -1.0101 H         1 <0>         0.1545
     52 H19       -10.8711   -6.8647    5.8975 H         1 <0>         0.0683
     53 H20       -10.9875   -8.6558    5.8260 H         1 <0>         0.0743
     54 H21       -12.3573   -7.6433    5.2559 H         1 <0>         0.0749
@<TRIPOS>BOND
     1    1    2 1
     2    1   35 1
     3    1   36 1
     4    1   37 1
     5    2    7 ar
     6    2    3 ar
     7    3    4 ar
     8    3   38 1
     9    4    5 ar
    10    4   34 1
    11    5    6 ar
    12    5   39 1
    13    6    7 ar
    14    6    8 1
    15    7   40 1
    16    8    9 1
    17    9   10 1
    18    9   41 1
    19    9   42 1
    20   10   14 1
    21   10   11 2
    22   11   12 1
    23   12   13 2
    24   13   14 1
    25   13   16 1
    26   14   15 1
    27   15   43 1
    28   15   44 1
    29   16   17 1
    30   17   18 1
    31   17   19 1
    32   17   20 1
    33   19   45 1
    34   19   46 1
    35   19   47 1
    36   20   21 2
    37   20   22 am
    38   22   23 1
    39   22   48 1
    40   23   28 ar
    41   23   24 ar
    42   24   25 ar
    43   24   49 1
    44   25   26 ar
    45   25   50 1
    46   26   27 ar
    47   26   33 1
    48   27   28 ar
    49   27   51 1
    50   28   29 1
    51   29   30 1
    52   29   31 1
    53   29   32 1
    54   34   52 1
    55   34   53 1
    56   34   54 1
@<TRIPOS>MOLECULE
ZINC39747543
   61    65     0     0     0
SMALL
USER_CHARGES

@<TRIPOS>ATOM
      1 C1         -0.0824    0.5631   -0.8678 C.3       1 <0>        -0.1164
      2 C2         -0.1284   -0.9228   -0.6203 C.ar      1 <0>        -0.0526
      3 C3         -0.2270   -1.7979   -1.6865 C.ar      1 <0>        -0.1564
      4 C4         -0.2694   -3.1615   -1.4628 C.ar      1 <0>        -0.0798
      5 C5         -0.2137   -3.6532   -0.1728 C.ar      1 <0>        -0.1186
      6 C6         -0.1147   -2.7774    0.8983 C.ar      1 <0>         0.1348
      7 C7         -0.0662   -1.4095    0.6708 C.ar      1 <0>        -0.2098
      8 O1         -0.0597   -3.2586    2.1681 O.3       1 <0>        -0.2763
      9 C8          0.0417   -2.2987    3.2218 C.3       1 <0>         0.0704
     10 C9          0.0913   -3.0231    4.5685 C.3       1 <0>         0.2673
     11 H1          0.2644   -2.3123    5.3766 H         1 <0>         0.0615
     12 N1          1.1493   -4.0670    4.5588 N.3       1 <0>        -0.4636
     13 N2          0.6988   -5.0037    5.6004 N.3       1 <0>        -0.4718
     14 C10        -0.7742   -5.0363    5.4540 C.3       1 <0>         0.3251
     15 H2         -1.0694   -5.8843    4.8360 H         1 <0>         0.1368
     16 N3         -1.1608   -3.7721    4.7987 N.pl3     1 <0>        -0.6629
     17 C11        -2.4532   -3.3642    4.4609 C.ar      1 <0>         0.2024
     18 C12        -3.1769   -4.0654    3.5047 C.ar      1 <0>        -0.1156
     19 C13        -4.4548   -3.6596    3.1734 C.ar      1 <0>        -0.1032
     20 C14        -5.0138   -2.5564    3.7920 C.ar      1 <0>        -0.1237
     21 C15        -4.2962   -1.8561    4.7443 C.ar      1 <0>        -0.1060
     22 C16        -3.0200   -2.2598    5.0845 C.ar      1 <0>        -0.1318
     23 S1         -1.5586   -5.1538    7.0854 S.3       1 <0>        -0.1413
     24 C17        -0.9624   -3.6841    7.9658 C.3       1 <0>        -0.0690
     25 C18        -1.5468   -3.6589    9.3546 C.2       1 <0>         0.4048
     26 N4         -1.2202   -2.6246   10.1727 N.am      1 <0>        -0.6498
     27 H3         -0.6243   -1.9290    9.8533 H         1 <0>         0.4171
     28 C19        -1.7190   -2.5556   11.4290 C.2       1 <0>         0.5543
     29 O2         -1.4354   -1.6343   12.1722 O.2       1 <0>        -0.5060
     30 C20        -2.6173   -3.6367   11.8609 C.ar      1 <0>        -0.1962
     31 C21        -3.1836   -3.6602   13.1338 C.ar      1 <0>        -0.0426
     32 C22        -4.0183   -4.6979   13.4862 C.ar      1 <0>        -0.1326
     33 C23        -4.2981   -5.7168   12.5848 C.ar      1 <0>        -0.0719
     34 C24        -3.7484   -5.7124   11.3226 C.ar      1 <0>        -0.1020
     35 C25        -2.8996   -4.6712   10.9415 C.ar      1 <0>         0.1507
     36 N5         -2.3409   -4.6242    9.7063 N.2       1 <0>        -0.4866
     37 C26        -0.2609   -5.1397    0.0703 C.3       1 <0>        -0.1014
     38 H4          0.9534    0.8787   -0.9928 H         1 <0>         0.0717
     39 H5         -0.6455    0.7986   -1.7708 H         1 <0>         0.0686
     40 H6         -0.5218    1.0866   -0.0186 H         1 <0>         0.0642
     41 H7         -0.2714   -1.4155   -2.6955 H         1 <0>         0.1220
     42 H8         -0.3465   -3.8430   -2.2971 H         1 <0>         0.1277
     43 H9          0.0156   -0.7258    1.5028 H         1 <0>         0.1212
     44 H10         0.9504   -1.7110    3.0917 H         1 <0>         0.0692
     45 H11        -0.8250   -1.6382    3.1962 H         1 <0>         0.0695
     46 H12         2.0485   -3.6728    4.7913 H         1 <0>         0.3542
     47 H13         0.9638   -4.6787    6.5181 H         1 <0>         0.3167
     48 H14        -2.7406   -4.9266    3.0207 H         1 <0>         0.1234
     49 H15        -5.0179   -4.2044    2.4301 H         1 <0>         0.1243
     50 H16        -6.0130   -2.2408    3.5306 H         1 <0>         0.1227
     51 H17        -4.7357   -0.9949    5.2255 H         1 <0>         0.1224
     52 H18        -2.4618   -1.7151    5.8315 H         1 <0>         0.1120
     53 H19         0.1253   -3.7152    8.0299 H         1 <0>         0.1066
     54 H20        -1.2691   -2.7880    7.4263 H         1 <0>         0.1125
     55 H21        -2.9694   -2.8708   13.8390 H         1 <0>         0.1392
     56 H22        -4.4587   -4.7195   14.4721 H         1 <0>         0.1361
     57 H23        -4.9547   -6.5226   12.8777 H         1 <0>         0.1376
     58 H24        -3.9733   -6.5102   10.6302 H         1 <0>         0.1433
     59 H25         0.7527   -5.5406    0.0685 H         1 <0>         0.0671
     60 H26        -0.7273   -5.3353    1.0359 H         1 <0>         0.0694
     61 H27        -0.8424   -5.6185   -0.7176 H         1 <0>         0.0611
@<TRIPOS>BOND
     1    1    2 1
     2    1   38 1
     3    1   39 1
     4    1   40 1
     5    2    7 ar
     6    2    3 ar
     7    3    4 ar
     8    3   41 1
     9    4    5 ar
    10    4   42 1
    11    5    6 ar
    12    5   37 1
    13    6    7 ar
    14    6    8 1
    15    7   43 1
    16    8    9 1
    17    9   10 1
    18    9   44 1
    19    9   45 1
    20   10   11 1
    21   10   16 1
    22   10   12 1
    23   12   13 1
    24   12   46 1
    25   13   14 1
    26   13   47 1
    27   14   15 1
    28   14   16 1
    29   14   23 1
    30   16   17 1
    31   17   22 ar
    32   17   18 ar
    33   18   19 ar
    34   18   48 1
    35   19   20 ar
    36   19   49 1
    37   20   21 ar
    38   20   50 1
    39   21   22 ar
    40   21   51 1
    41   22   52 1
    42   23   24 1
    43   24   25 1
    44   24   53 1
    45   24   54 1
    46   25   36 2
    47   25   26 1
    48   26   27 1
    49   26   28 am
    50   28   29 2
    51   28   30 1
    52   30   35 ar
    53   30   31 ar
    54   31   32 ar
    55   31   55 1
    56   32   33 ar
    57   32   56 1
    58   33   34 ar
    59   33   57 1
    60   34   35 ar
    61   34   58 1
    62   35   36 1
    63   37   59 1
    64   37   60 1
    65   37   61 1
@<TRIPOS>MOLECULE
ZINC12845828
   63    66     0     0     0
SMALL
USER_CHARGES

@<TRIPOS>ATOM
      1 C1         -0.0195    1.5026    0.0109 C.3       1 <0>        -0.1258
      2 C2          0.0183   -0.0039    0.0023 C.ar      1 <0>        -0.0553
      3 C3          0.0259   -0.6886   -1.1950 C.ar      1 <0>        -0.1240
      4 C4          0.0606   -2.0718   -1.2048 C.ar      1 <0>        -0.1016
      5 C5          0.0878   -2.7788   -0.0152 C.ar      1 <0>        -0.1288
      6 C6          0.0806   -2.1084    1.1897 C.ar      1 <0>        -0.0978
      7 C7          0.0514   -0.7107    1.2076 C.ar      1 <0>        -0.0807
      8 C8          0.0492    0.0131    2.4905 C.2       1 <0>        -0.0161
      9 C9          0.0812   -0.6707    3.6489 C.2       1 <0>        -0.1301
     10 C10         0.0790    0.0505    4.9271 C.2       1 <0>         0.3362
     11 N1          0.0418    1.3629    5.0815 N.2       1 <0>        -0.5081
     12 C11         0.0525    1.6633    6.3803 C.2       1 <0>         0.1975
     13 N2          0.0967    0.5528    7.0813 N.2       1 <0>        -0.3186
     14 N3          0.1089   -0.5118    6.1656 N.pl3     1 <0>        -0.4753
     15 S1          0.0137    3.2922    7.0510 S.3       1 <0>         0.1108
     16 C12         0.0490    3.0288    8.8455 C.3       1 <0>        -0.1611
     17 C13         0.0196    4.3610    9.5494 C.2       1 <0>         0.5368
     18 O1         -0.0212    5.3870    8.9041 O.2       1 <0>        -0.5006
     19 N4          0.0386    4.4122   10.8960 N.am      1 <0>        -0.6531
     20 C14         0.1279    5.6414   11.5450 C.ar      1 <0>         0.2163
     21 C15         0.7056    6.7288   10.9034 C.ar      1 <0>        -0.1433
     22 C16         0.7935    7.9458   11.5486 C.ar      1 <0>        -0.0644
     23 C17         0.3073    8.0929   12.8377 C.ar      1 <0>        -0.1459
     24 C18        -0.2696    7.0249   13.4899 C.ar      1 <0>        -0.0632
     25 C19        -0.3705    5.7884   12.8479 C.ar      1 <0>        -0.1798
     26 C20        -0.9925    4.6425   13.5381 C.2       1 <0>         0.5730
     27 O2         -0.9938    3.5451   13.0144 O.2       1 <0>        -0.5471
     28 N5         -1.5594    4.8120   14.7490 N.am      1 <0>        -0.7162
     29 C21        -2.1771    3.6741   15.4344 C.3       1 <0>         0.1840
     30 H1         -1.6114    2.7682   15.2169 H         1 <0>         0.1000
     31 C22        -3.6174    3.5055   14.9465 C.3       1 <0>        -0.1592
     32 C23        -2.1761    3.9221   16.9209 C.ar      1 <0>        -0.0950
     33 C24        -2.4590    5.1832   17.4114 C.ar      1 <0>        -0.1163
     34 C25        -2.4581    5.4107   18.7748 C.ar      1 <0>        -0.1144
     35 C26        -2.1747    4.3771   19.6479 C.ar      1 <0>        -0.1171
     36 C27        -1.8927    3.1158   19.1574 C.ar      1 <0>        -0.1142
     37 C28        -1.8978    2.8873   17.7941 C.ar      1 <0>        -0.1066
     38 H2          0.9987    1.8916   -0.0002 H         1 <0>         0.0771
     39 H3         -0.5537    1.8577   -0.8704 H         1 <0>         0.0712
     40 H4         -0.5307    1.8482    0.9094 H         1 <0>         0.0742
     41 H5          0.0044   -0.1437   -2.1272 H         1 <0>         0.1269
     42 H6          0.0661   -2.6024   -2.1454 H         1 <0>         0.1252
     43 H7          0.1144   -3.8584   -0.0307 H         1 <0>         0.1256
     44 H8          0.1012   -2.6614    2.1171 H         1 <0>         0.1261
     45 H9          0.0219    1.0927    2.5013 H         1 <0>         0.1433
     46 H10         0.1085   -1.7503    3.6381 H         1 <0>         0.1420
     47 H11        -0.8192    2.4411    9.1436 H         1 <0>         0.1271
     48 H12         0.9597    2.4947    9.1165 H         1 <0>         0.1270
     49 H13        -0.0099    3.5930   11.4132 H         1 <0>         0.4294
     50 H14         1.0869    6.6221    9.8986 H         1 <0>         0.1547
     51 H15         1.2444    8.7885   11.0456 H         1 <0>         0.1341
     52 H16         0.3812    9.0493   13.3340 H         1 <0>         0.1320
     53 H17        -0.6467    7.1446   14.4948 H         1 <0>         0.1278
     54 H18        -1.5583    5.6875   15.1668 H         1 <0>         0.4015
     55 H19        -3.6181    3.3261   13.8713 H         1 <0>         0.0665
     56 H20        -4.0770    2.6588   15.4564 H         1 <0>         0.0702
     57 H21        -4.1831    4.4114   15.1640 H         1 <0>         0.0601
     58 H22        -2.6804    5.9908   16.7293 H         1 <0>         0.1194
     59 H23        -2.6784    6.3961   19.1580 H         1 <0>         0.1251
     60 H24        -2.1733    4.5550   20.7131 H         1 <0>         0.1242
     61 H25        -1.6710    2.3083   19.8395 H         1 <0>         0.1256
     62 H26        -1.6812    1.9010   17.4111 H         1 <0>         0.1252
     63 H27         0.1351   -1.4588    6.3744 H         1 <0>         0.4439
@<TRIPOS>BOND
     1    1    2 1
     2    1   38 1
     3    1   39 1
     4    1   40 1
     5    2    7 ar
     6    2    3 ar
     7    3    4 ar
     8    3   41 1
     9    4    5 ar
    10    4   42 1
    11    5    6 ar
    12    5   43 1
    13    6    7 ar
    14    6   44 1
    15    7    8 1
    16    8    9 2
    17    8   45 1
    18    9   10 1
    19    9   46 1
    20   10   14 1
    21   10   11 2
    22   11   12 1
    23   12   13 2
    24   12   15 1
    25   13   14 1
    26   14   63 1
    27   15   16 1
    28   16   17 1
    29   16   47 1
    30   16   48 1
    31   17   18 2
    32   17   19 am
    33   19   20 1
    34   19   49 1
    35   20   25 ar
    36   20   21 ar
    37   21   22 ar
    38   21   50 1
    39   22   23 ar
    40   22   51 1
    41   23   24 ar
    42   23   52 1
    43   24   25 ar
    44   24   53 1
    45   25   26 1
    46   26   27 2
    47   26   28 am
    48   28   29 1
    49   28   54 1
    50   29   30 1
    51   29   31 1
    52   29   32 1
    53   31   55 1
    54   31   56 1
    55   31   57 1
    56   32   37 ar
    57   32   33 ar
    58   33   34 ar
    59   33   58 1
    60   34   35 ar
    61   34   59 1
    62   35   36 ar
    63   35   60 1
    64   36   37 ar
    65   36   61 1
    66   37   62 1
@<TRIPOS>MOLECULE
ZINC09542616
   65    68     0     0     0
SMALL
USER_CHARGES
methyl 4-[4-(3-ethoxy-2-hydroxy-phenyl)-6-(4-ethylphenyl)-2,3,4,5-tetrahydropyrimidin-2-yl]benzoate
@<TRIPOS>ATOM
      1 C1          1.5592   -0.1254   -6.9625 C.3       1 <0>        -0.1488
      2 C2          0.4101   -0.8730   -6.2830 C.3       1 <0>        -0.0979
      3 C3          0.1086   -0.2296   -4.9540 C.ar      1 <0>        -0.0353
      4 C4         -0.8189    0.7943   -4.8792 C.ar      1 <0>        -0.1264
      5 C5         -1.0994    1.3880   -3.6660 C.ar      1 <0>        -0.0515
      6 C6         -0.4447    0.9533   -2.5118 C.ar      1 <0>        -0.1079
      7 C7          0.4944   -0.0766   -2.5955 C.ar      1 <0>        -0.0776
      8 C8          0.7610   -0.6653   -3.8142 C.ar      1 <0>        -0.1235
      9 C9         -0.7398    1.5838   -1.2100 C.2       1 <0>         0.2757
     10 N1         -1.6025    2.5280   -1.1717 N.2       1 <0>        -0.5228
     11 C10        -1.9955    3.2282    0.0447 C.3       1 <0>         0.2571
     12 H1         -2.9634    2.8537    0.3778 H         1 <0>         0.1657
     13 C11        -0.7296    1.5798    1.2684 C.3       1 <0>         0.0939
     14 H2         -1.6669    1.0379    1.3946 H         1 <0>         0.1604
     15 C12        -0.0127    1.0858    0.0080 C.3       1 <0>        -0.1401
     16 C13         0.1505    1.3624    2.4722 C.ar      1 <0>        -0.1268
     17 C14         0.8832    2.4137    2.9919 C.ar      1 <0>        -0.1587
     18 C15         1.6877    2.2188    4.0988 C.ar      1 <0>        -0.0611
     19 C16         1.7715    0.9692    4.6850 C.ar      1 <0>        -0.1754
     20 C17         1.0442   -0.0894    4.1662 C.ar      1 <0>         0.1304
     21 C18         0.2299    0.1081    3.0547 C.ar      1 <0>         0.1061
     22 O1         -0.4857   -0.9282    2.5414 O.3       1 <0>        -0.4792
     23 O2          1.1251   -1.3189    4.7418 O.3       1 <0>        -0.2980
     24 C19         1.9805   -1.4476    5.8793 C.3       1 <0>         0.0498
     25 C20         1.9422   -2.8910    6.3855 C.3       1 <0>        -0.1556
     26 C21        -2.1069    4.7029   -0.2453 C.ar      1 <0>        -0.1040
     27 C22        -1.8556    5.6228    0.7573 C.ar      1 <0>        -0.1399
     28 C23        -1.9511    6.9742    0.4975 C.ar      1 <0>        -0.0501
     29 C24        -2.3126    7.4127   -0.7779 C.ar      1 <0>        -0.0926
     30 C25        -2.5699    6.4789   -1.7835 C.ar      1 <0>        -0.0466
     31 C26        -2.4656    5.1306   -1.5114 C.ar      1 <0>        -0.0691
     32 C27        -2.4219    8.8583   -1.0622 C.2       1 <0>         0.4992
     33 O3         -2.7362    9.2368   -2.1728 O.2       1 <0>        -0.4875
     34 O4         -2.1729    9.7566   -0.0897 O.3       1 <0>        -0.3544
     35 C28        -2.2996   11.1599   -0.4405 C.3       1 <0>         0.0353
     36 H3          1.2738    0.9149   -7.1188 H         1 <0>         0.0575
     37 H4          2.4452   -0.1678   -6.3290 H         1 <0>         0.0571
     38 H5          1.7773   -0.5907   -7.9238 H         1 <0>         0.0656
     39 H6          0.6956   -1.9132   -6.1266 H         1 <0>         0.0794
     40 H7         -0.4759   -0.8306   -6.9165 H         1 <0>         0.0797
     41 H8         -1.3243    1.1298   -5.7728 H         1 <0>         0.1332
     42 H9         -1.8234    2.1874   -3.6091 H         1 <0>         0.1375
     43 H10         1.0076   -0.4146   -1.7073 H         1 <0>         0.1285
     44 H11         1.4842   -1.4647   -3.8797 H         1 <0>         0.1336
     45 H12         0.0008    0.0859    0.0025 H         1 <0>         0.1239
     46 H13         1.0099    1.4631    0.0003 H         1 <0>         0.1279
     47 H14         0.8239    3.3901    2.5342 H         1 <0>         0.1221
     48 H15         2.2555    3.0433    4.5040 H         1 <0>         0.1436
     49 H16         2.4037    0.8187    5.5476 H         1 <0>         0.1461
     50 H17        -0.0167   -1.4317    1.8619 H         1 <0>         0.3957
     51 H18         3.0011   -1.1884    5.5976 H         1 <0>         0.0687
     52 H19         1.6397   -0.7769    6.6680 H         1 <0>         0.0689
     53 H20         0.9217   -3.1502    6.6671 H         1 <0>         0.0705
     54 H21         2.2830   -3.5618    5.5968 H         1 <0>         0.0698
     55 H22         2.5947   -2.9892    7.2531 H         1 <0>         0.0864
     56 H23        -1.5801    5.2821    1.7444 H         1 <0>         0.1266
     57 H24        -1.7510    7.6912    1.2799 H         1 <0>         0.1527
     58 H25        -2.8504    6.8114   -2.7721 H         1 <0>         0.1529
     59 H26        -2.6640    4.4071   -2.2883 H         1 <0>         0.1548
     60 H27        -2.0725   11.7742    0.4308 H         1 <0>         0.1096
     61 H28        -1.6029   11.3978   -1.2444 H         1 <0>         0.0689
     62 H29        -3.3185   11.3612   -0.7713 H         1 <0>         0.0693
     63 N2         -1.0025    3.0216    1.1098 N.4       1 <0>        -0.5448
     64 H30        -1.3668    3.3984    1.9927 H         1 <0>         0.4394
     65 H31        -0.1325    3.5078    0.8633 H         1 <0>         0.4325
@<TRIPOS>BOND
     1    1    2 1
     2    1   36 1
     3    1   37 1
     4    1   38 1
     5    2    3 1
     6    2   39 1
     7    2   40 1
     8    3    8 ar
     9    3    4 ar
    10    4    5 ar
    11    4   41 1
    12    5    6 ar
    13    5   42 1
    14    6    7 ar
    15    6    9 1
    16    7    8 ar
    17    7   43 1
    18    8   44 1
    19    9   15 1
    20    9   10 2
    21   10   11 1
    22   11   12 1
    23   11   26 1
    24   11   63 1
    25   13   14 1
    26   13   15 1
    27   13   16 1
    28   13   63 1
    29   15   45 1
    30   15   46 1
    31   16   21 ar
    32   16   17 ar
    33   17   18 ar
    34   17   47 1
    35   18   19 ar
    36   18   48 1
    37   19   20 ar
    38   19   49 1
    39   20   21 ar
    40   20   23 1
    41   21   22 1
    42   22   50 1
    43   23   24 1
    44   24   25 1
    45   24   51 1
    46   24   52 1
    47   25   53 1
    48   25   54 1
    49   25   55 1
    50   26   31 ar
    51   26   27 ar
    52   27   28 ar
    53   27   56 1
    54   28   29 ar
    55   28   57 1
    56   29   30 ar
    57   29   32 1
    58   30   31 ar
    59   30   58 1
    60   31   59 1
    61   32   33 2
    62   32   34 1
    63   34   35 1
    64   35   60 1
    65   35   61 1
    66   35   62 1
    67   63   64 1
    68   63   65 1
@<TRIPOS>MOLECULE
ZINC16484659
   67    69     0     0     0
SMALL
USER_CHARGES
ethyl 5-[(2,4-dimethylphenyl)carbamoyl]-4-methyl-2-[[2-[(2S)-2-methyl-1-piperidyl]acetyl]amino]thiophene-3-carboxylate
@<TRIPOS>ATOM
      1 C1          1.3568   -4.5659    2.2331 C.3       1 <0>        -0.1550
      2 C2          1.2450   -3.9635    0.8312 C.3       1 <0>         0.0585
      3 O1          1.1081   -2.5216    0.9334 O.3       1 <0>        -0.3482
      4 C3          0.9973   -1.8338   -0.2211 C.2       1 <0>         0.5237
      5 O2          1.0147   -2.4237   -1.2843 O.2       1 <0>        -0.4805
      6 C4          0.8557   -0.3737   -0.1945 C.2       1 <0>        -0.1826
      7 C5          1.9672    0.4553   -0.2261 C.2       1 <0>         0.0225
      8 C6          1.7531    1.8066   -0.1987 C.2       1 <0>        -0.2702
      9 S1         -0.0245    1.9209   -0.1278 S.3       1 <0>         0.2958
     10 C7         -0.4049    0.2300   -0.1369 C.2       1 <0>         0.0665
     11 N1         -1.6469   -0.3731   -0.0966 N.am      1 <0>        -0.5913
     12 C8         -2.7615    0.3827   -0.0426 C.2       1 <0>         0.5051
     13 O3         -2.6740    1.5921   -0.0293 O.2       1 <0>        -0.4868
     14 C9         -4.1166   -0.2752    0.0013 C.3       1 <0>        -0.0269
     15 C10        -5.0698    1.6515    1.1147 C.3       1 <0>        -0.0212
     16 C11        -6.2570    2.6173    1.1109 C.3       1 <0>        -0.1420
     17 C12        -6.2445    3.4286   -0.1876 C.3       1 <0>        -0.1384
     18 C13        -6.2934    2.4693   -1.3800 C.3       1 <0>        -0.1364
     19 C14        -5.1052    1.5078   -1.3041 C.3       1 <0>         0.0154
     20 H1         -4.1755    2.0754   -1.3457 H         1 <0>         0.1543
     21 C15        -5.1610    0.5342   -2.4830 C.3       1 <0>        -0.1870
     22 C16         2.7386    2.8890   -0.2222 C.2       1 <0>         0.6052
     23 O4          3.9269    2.6292   -0.2725 O.2       1 <0>        -0.4894
     24 N2          2.3303    4.1729   -0.1881 N.am      1 <0>        -0.6600
     25 C17         3.2710    5.2036   -0.0965 C.ar      1 <0>         0.1336
     26 C18         4.5209    4.9580    0.4578 C.ar      1 <0>        -0.1194
     27 C19         5.4475    5.9779    0.5468 C.ar      1 <0>        -0.1034
     28 C20         5.1325    7.2427    0.0844 C.ar      1 <0>        -0.0914
     29 C21         3.8893    7.4905   -0.4678 C.ar      1 <0>        -0.1004
     30 C22         2.9598    6.4734   -0.5646 C.ar      1 <0>        -0.1097
     31 C23         1.6073    6.7429   -1.1722 C.3       1 <0>        -0.1162
     32 C24         6.1466    8.3532    0.1823 C.3       1 <0>        -0.1168
     33 C25         3.3618   -0.1122   -0.2879 C.3       1 <0>        -0.1216
     34 H2          1.4596   -5.6483    2.1564 H         1 <0>         0.0867
     35 H3          2.2304   -4.1528    2.7374 H         1 <0>         0.0713
     36 H4          0.4601   -4.3256    2.8044 H         1 <0>         0.0660
     37 H5          0.3714   -4.3766    0.3268 H         1 <0>         0.0725
     38 H6          2.1417   -4.2037    0.2599 H         1 <0>         0.0777
     39 H7         -1.7169   -1.3405   -0.1073 H         1 <0>         0.4308
     40 H8         -4.2249   -0.9415   -0.8545 H         1 <0>         0.1686
     41 H9         -4.2121   -0.8492    0.9230 H         1 <0>         0.1699
     42 H10        -5.0839    1.0623    2.0316 H         1 <0>         0.1258
     43 H11        -4.1403    2.2184    1.0617 H         1 <0>         0.1544
     44 H12        -6.1793    3.2928    1.9628 H         1 <0>         0.1131
     45 H13        -7.1867    2.0523    1.1781 H         1 <0>         0.0859
     46 H14        -5.3329    4.0241   -0.2363 H         1 <0>         0.0841
     47 H15        -7.1122    4.0878   -0.2147 H         1 <0>         0.0947
     48 H16        -6.2417    3.0390   -2.3078 H         1 <0>         0.1122
     49 H17        -7.2234    1.9014   -1.3524 H         1 <0>         0.0874
     50 H18        -6.1236    0.0226   -2.4864 H         1 <0>         0.0852
     51 H19        -5.0391    1.0853   -3.4154 H         1 <0>         0.1092
     52 H20        -4.3603   -0.1990   -2.3869 H         1 <0>         0.0735
     53 H21         1.3840    4.3821   -0.2271 H         1 <0>         0.4059
     54 H22         4.7678    3.9703    0.8183 H         1 <0>         0.1466
     55 H23         6.4194    5.7876    0.9775 H         1 <0>         0.1280
     56 H24         3.6465    8.4793   -0.8279 H         1 <0>         0.1280
     57 H25         0.9151    7.0597   -0.3921 H         1 <0>         0.0717
     58 H26         1.6957    7.5300   -1.9211 H         1 <0>         0.0758
     59 H27         1.2329    5.8339   -1.6430 H         1 <0>         0.0590
     60 H28         6.7536    8.3717   -0.7229 H         1 <0>         0.0724
     61 H29         5.6312    9.3071    0.2937 H         1 <0>         0.0673
     62 H30         6.7885    8.1839    1.0468 H         1 <0>         0.0682
     63 H31         3.6583   -0.2349   -1.3296 H         1 <0>         0.0895
     64 H32         4.0534    0.5682    0.2090 H         1 <0>         0.1057
     65 H33         3.3826   -1.0805    0.2121 H         1 <0>         0.0676
     66 N3         -5.1889    0.7402   -0.0432 N.4       1 <0>        -0.3741
     67 H34        -6.0988    0.2663   -0.0017 H         1 <0>         0.4339
@<TRIPOS>BOND
     1    1    2 1
     2    1   34 1
     3    1   35 1
     4    1   36 1
     5    2    3 1
     6    2   37 1
     7    2   38 1
     8    3    4 1
     9    4    5 2
    10    4    6 1
    11    6   10 2
    12    6    7 1
    13    7    8 2
    14    7   33 1
    15    8    9 1
    16    8   22 1
    17    9   10 1
    18   10   11 1
    19   11   12 am
    20   11   39 1
    21   12   13 2
    22   12   14 1
    23   14   40 1
    24   14   41 1
    25   14   66 1
    26   15   16 1
    27   15   42 1
    28   15   43 1
    29   15   66 1
    30   16   17 1
    31   16   44 1
    32   16   45 1
    33   17   18 1
    34   17   46 1
    35   17   47 1
    36   18   19 1
    37   18   48 1
    38   18   49 1
    39   19   20 1
    40   19   21 1
    41   19   66 1
    42   21   50 1
    43   21   51 1
    44   21   52 1
    45   22   23 2
    46   22   24 am
    47   24   25 1
    48   24   53 1
    49   25   30 ar
    50   25   26 ar
    51   26   27 ar
    52   26   54 1
    53   27   28 ar
    54   27   55 1
    55   28   29 ar
    56   28   32 1
    57   29   30 ar
    58   29   56 1
    59   30   31 1
    60   31   57 1
    61   31   58 1
    62   31   59 1
    63   32   60 1
    64   32   61 1
    65   32   62 1
    66   33   63 1
    67   33   64 1
    68   33   65 1
    69   66   67 1
@<TRIPOS>MOLECULE
ZINC18155051
   64    68     0     0     0
SMALL
USER_CHARGES

@<TRIPOS>ATOM
      1 C1         -0.0187    1.5258    0.0104 C.3       1 <0>        -0.1573
      2 C2          0.0021   -0.0041    0.0020 C.3       1 <0>         0.0510
      3 O1          0.6709   -0.4649   -1.1737 O.3       1 <0>        -0.2912
      4 C3          0.7768   -1.8110   -1.3363 C.ar      1 <0>         0.1317
      5 C4          0.2434   -2.6690   -0.3876 C.ar      1 <0>        -0.1666
      6 C5          0.3521   -4.0370   -0.5537 C.ar      1 <0>        -0.1240
      7 C6          0.9924   -4.5530   -1.6651 C.ar      1 <0>        -0.0914
      8 C7          1.5270   -3.7024   -2.6158 C.ar      1 <0>        -0.0809
      9 C8          1.4158   -2.3294   -2.4580 C.ar      1 <0>         0.1284
     10 O2          1.9359   -1.4913   -3.3944 O.3       1 <0>        -0.3071
     11 C9          3.2926   -1.0799   -3.2150 C.3       1 <0>         0.1135
     12 C10         3.6920   -0.1611   -4.3407 C.ar      1 <0>        -0.1127
     13 C11         4.2402   -0.6836   -5.4973 C.ar      1 <0>        -0.0615
     14 C12         4.6065    0.1579   -6.5305 C.ar      1 <0>        -0.1570
     15 C13         4.4242    1.5249   -6.4069 C.ar      1 <0>         0.1166
     16 C14         3.8750    2.0471   -5.2481 C.ar      1 <0>        -0.1572
     17 C15         3.5047    1.2031   -4.2183 C.ar      1 <0>        -0.0608
     18 F1          4.7822    2.3486   -7.4161 F         1 <0>        -0.1334
     19 Br1         2.4032   -4.4120   -4.1339 Br        1 <0>         0.0029
     20 C16        -0.2282   -4.9682    0.4794 C.3       1 <0>         0.0395
     21 N1         -1.6195   -5.2830    0.1284 N.4       1 <0>        -0.5033
     22 C17        -2.1852   -6.1906    1.1354 C.3       1 <0>         0.0642
     23 C18        -1.3650   -7.4816    1.1765 C.3       1 <0>        -0.1311
     24 C19        -1.9542   -8.4269    2.2253 C.3       1 <0>        -0.0764
     25 H1         -1.3699   -9.3466    2.2546 H         1 <0>         0.0980
     26 C20        -1.9145   -7.7535    3.5986 C.3       1 <0>        -0.1221
     27 C21        -2.7347   -6.4626    3.5575 C.3       1 <0>        -0.0763
     28 H2         -2.7064   -5.9828    4.5358 H         1 <0>         0.0975
     29 C22        -2.1455   -5.5172    2.5087 C.3       1 <0>        -0.1305
     30 C23        -4.1837   -6.7904    3.1920 C.3       1 <0>        -0.1500
     31 C24        -4.2234   -7.4638    1.8187 C.3       1 <0>         0.1491
     32 C25        -3.4033   -8.7548    1.8598 C.3       1 <0>        -0.1502
     33 C26        -3.6343   -6.5185    0.7699 C.3       1 <0>        -0.1203
     34 O3         -5.5769   -7.7700    1.4773 O.3       1 <0>        -0.5547
     35 H3          1.0039    1.9031    0.0027 H         1 <0>         0.0715
     36 H4         -0.5459    1.8868   -0.8726 H         1 <0>         0.0722
     37 H5         -0.5289    1.8773    0.9072 H         1 <0>         0.0857
     38 H6          0.5293   -0.3651    0.8851 H         1 <0>         0.0668
     39 H7         -1.0205   -0.3814    0.0098 H         1 <0>         0.0647
     40 H8         -0.2569   -2.2688    0.4818 H         1 <0>         0.1469
     41 H9          1.0756   -5.6224   -1.7911 H         1 <0>         0.1481
     42 H10         3.3903   -0.5545   -2.2650 H         1 <0>         0.0704
     43 H11         3.9409   -1.9562   -3.2138 H         1 <0>         0.0698
     44 H12         4.3827   -1.7499   -5.5933 H         1 <0>         0.1339
     45 H13         5.0350   -0.2505   -7.4338 H         1 <0>         0.1410
     46 H14         3.7327    3.1132   -5.1505 H         1 <0>         0.1409
     47 H15         3.0722    1.6098   -3.3161 H         1 <0>         0.1349
     48 H16         0.3561   -5.8879    0.5086 H         1 <0>         0.1460
     49 H17        -0.1999   -4.4885    1.4577 H         1 <0>         0.1439
     50 H18        -2.1604   -4.4316    0.1013 H         1 <0>         0.4268
     51 H19        -1.3933   -7.9613    0.1982 H         1 <0>         0.0914
     52 H20        -0.3327   -7.2480    1.4369 H         1 <0>         0.0925
     53 H21        -2.3342   -8.4270    4.3458 H         1 <0>         0.0821
     54 H22        -0.8821   -7.5200    3.8590 H         1 <0>         0.0756
     55 H23        -1.1131   -5.2837    2.7691 H         1 <0>         0.0920
     56 H24        -2.7298   -4.5975    2.4794 H         1 <0>         0.0899
     57 H25        -4.6035   -7.4639    3.9392 H         1 <0>         0.0830
     58 H26        -4.7680   -5.8707    3.1627 H         1 <0>         0.0797
     59 H27        -3.4316   -9.2345    0.8815 H         1 <0>         0.0803
     60 H28        -3.8230   -9.4283    2.6070 H         1 <0>         0.0829
     61 H29        -4.2186   -5.5988    0.7406 H         1 <0>         0.0947
     62 H30        -3.6626   -6.9982   -0.2085 H         1 <0>         0.0955
     63 H31        -6.0144   -8.3663    2.1002 H         1 <0>         0.3920
     64 H32        -1.6457   -5.7271   -0.7772 H         1 <0>         0.4283
@<TRIPOS>BOND
     1    1    2 1
     2    1   35 1
     3    1   36 1
     4    1   37 1
     5    2    3 1
     6    2   38 1
     7    2   39 1
     8    3    4 1
     9    4    9 ar
    10    4    5 ar
    11    5    6 ar
    12    5   40 1
    13    6    7 ar
    14    6   20 1
    15    7    8 ar
    16    7   41 1
    17    8    9 ar
    18    8   19 1
    19    9   10 1
    20   10   11 1
    21   11   12 1
    22   11   42 1
    23   11   43 1
    24   12   17 ar
    25   12   13 ar
    26   13   14 ar
    27   13   44 1
    28   14   15 ar
    29   14   45 1
    30   15   16 ar
    31   15   18 1
    32   16   17 ar
    33   16   46 1
    34   17   47 1
    35   20   21 1
    36   20   48 1
    37   20   49 1
    38   21   22 1
    39   21   50 1
    40   21   64 1
    41   22   29 1
    42   22   33 1
    43   22   23 1
    44   23   24 1
    45   23   51 1
    46   23   52 1
    47   24   25 1
    48   24   32 1
    49   24   26 1
    50   26   27 1
    51   26   53 1
    52   26   54 1
    53   27   28 1
    54   27   29 1
    55   27   30 1
    56   29   55 1
    57   29   56 1
    58   30   31 1
    59   30   57 1
    60   30   58 1
    61   31   32 1
    62   31   33 1
    63   31   34 1
    64   32   59 1
    65   32   60 1
    66   33   61 1
    67   33   62 1
    68   34   63 1
@<TRIPOS>MOLECULE
ZINC40744052
   49    50     0     0     0
SMALL
USER_CHARGES

@<TRIPOS>ATOM
      1 C1         -0.0187    1.5258    0.0104 C.3       1 <0>        -0.1560
      2 C2          0.0021   -0.0041    0.0020 C.3       1 <0>         0.0514
      3 O1          0.6709   -0.4649   -1.1737 O.3       1 <0>        -0.2850
      4 C3          0.7768   -1.8110   -1.3363 C.ar      1 <0>         0.1334
      5 C4          0.2434   -2.6690   -0.3876 C.ar      1 <0>        -0.1685
      6 C5          0.3521   -4.0370   -0.5537 C.ar      1 <0>        -0.1268
      7 C6          0.9924   -4.5530   -1.6651 C.ar      1 <0>        -0.0917
      8 C7          1.5270   -3.7024   -2.6158 C.ar      1 <0>        -0.0800
      9 C8          1.4158   -2.3294   -2.4580 C.ar      1 <0>         0.1282
     10 O2          1.9359   -1.4913   -3.3944 O.3       1 <0>        -0.2997
     11 C9          3.2926   -1.0799   -3.2150 C.3       1 <0>         0.1056
     12 C10         3.6920   -0.1611   -4.3407 C.ar      1 <0>        -0.0862
     13 C11         4.2407   -0.6831   -5.4983 C.ar      1 <0>        -0.0016
     14 C12         4.6073    0.1610   -6.5315 C.ar      1 <0>        -0.1090
     15 C13         4.4258    1.5255   -6.4070 C.ar      1 <0>        -0.0777
     16 C14         3.8776    2.0477   -5.2505 C.ar      1 <0>        -0.1095
     17 C15         3.5049    1.2041   -4.2191 C.ar      1 <0>        -0.0015
     18 Cl1         2.8093    1.8593   -2.7698 Cl        1 <0>        -0.0445
     19 Cl2         4.4698   -2.3968   -5.6545 Cl        1 <0>        -0.0459
     20 Br1         2.4032   -4.4120   -4.1339 Br        1 <0>         0.0064
     21 C16        -0.2282   -4.9682    0.4794 C.3       1 <0>         0.0478
     22 N1         -1.6195   -5.2830    0.1284 N.4       1 <0>        -0.5079
     23 C17        -2.1852   -6.1906    1.1354 C.3       1 <0>        -0.0023
     24 C18        -3.6343   -6.5185    0.7699 C.3       1 <0>         0.0780
     25 H1         -4.1980   -5.5928    0.6535 H         1 <0>         0.0797
     26 C19        -4.2623   -7.3618    1.8813 C.3       1 <0>        -0.1910
     27 O3         -3.6621   -7.2505   -0.4571 O.3       1 <0>        -0.5751
     28 H2          1.0039    1.9031    0.0027 H         1 <0>         0.0680
     29 H3         -0.5459    1.8868   -0.8726 H         1 <0>         0.0721
     30 H4         -0.5289    1.8773    0.9072 H         1 <0>         0.0854
     31 H5          0.5293   -0.3651    0.8851 H         1 <0>         0.0662
     32 H6         -1.0205   -0.3814    0.0098 H         1 <0>         0.0645
     33 H7         -0.2569   -2.2688    0.4818 H         1 <0>         0.1469
     34 H8          1.0756   -5.6224   -1.7911 H         1 <0>         0.1483
     35 H9          3.3903   -0.5545   -2.2650 H         1 <0>         0.0781
     36 H10         3.9409   -1.9562   -3.2138 H         1 <0>         0.0777
     37 H11         5.0356   -0.2464   -7.4354 H         1 <0>         0.1460
     38 H12         4.7127    2.1841   -7.2135 H         1 <0>         0.1486
     39 H13         3.7363    3.1140   -5.1537 H         1 <0>         0.1458
     40 H14         0.3561   -5.8879    0.5086 H         1 <0>         0.1443
     41 H15        -0.1999   -4.4885    1.4577 H         1 <0>         0.1420
     42 H16        -2.1604   -4.4316    0.1013 H         1 <0>         0.4260
     43 H17        -1.6009   -7.1103    1.1647 H         1 <0>         0.1414
     44 H18        -2.1569   -5.7109    2.1137 H         1 <0>         0.1455
     45 H19        -3.6986   -8.2874    1.9976 H         1 <0>         0.0777
     46 H20        -4.2411   -6.8034    2.8171 H         1 <0>         0.0789
     47 H21        -5.2947   -7.5954    1.6209 H         1 <0>         0.0815
     48 H22        -4.5511   -7.4928   -0.7505 H         1 <0>         0.4083
     49 H23        -1.6457   -5.7271   -0.7772 H         1 <0>         0.4365
@<TRIPOS>BOND
     1    1    2 1
     2    1   28 1
     3    1   29 1
     4    1   30 1
     5    2    3 1
     6    2   31 1
     7    2   32 1
     8    3    4 1
     9    4    9 ar
    10    4    5 ar
    11    5    6 ar
    12    5   33 1
    13    6    7 ar
    14    6   21 1
    15    7    8 ar
    16    7   34 1
    17    8    9 ar
    18    8   20 1
    19    9   10 1
    20   10   11 1
    21   11   12 1
    22   11   35 1
    23   11   36 1
    24   12   17 ar
    25   12   13 ar
    26   13   14 ar
    27   13   19 1
    28   14   15 ar
    29   14   37 1
    30   15   16 ar
    31   15   38 1
    32   16   17 ar
    33   16   39 1
    34   17   18 1
    35   21   22 1
    36   21   40 1
    37   21   41 1
    38   22   23 1
    39   22   42 1
    40   22   49 1
    41   23   24 1
    42   23   43 1
    43   23   44 1
    44   24   25 1
    45   24   26 1
    46   24   27 1
    47   26   45 1
    48   26   46 1
    49   26   47 1
    50   27   48 1
